# generated using pymatgen
data_CsRbNa2SnGe3(BrCl)6
_symmetry_space_group_name_H-M   'P 1'
_cell_length_a   11.22515808
_cell_length_b   5.80338991
_cell_length_c   11.06213032
_cell_angle_alpha   90.00000000
_cell_angle_beta   90.00000000
_cell_angle_gamma   90.00000000
_symmetry_Int_Tables_number   1
_chemical_formula_structural   CsRbNa2SnGe3(BrCl)6
_chemical_formula_sum   'Cs1 Rb1 Na2 Sn1 Ge3 Br6 Cl6'
_cell_volume   720.63107670
_cell_formula_units_Z   1
loop_
 _symmetry_equiv_pos_site_id
 _symmetry_equiv_pos_as_xyz
  1  'x, y, z'
loop_
 _atom_site_type_symbol
 _atom_site_label
 _atom_site_symmetry_multiplicity
 _atom_site_fract_x
 _atom_site_fract_y
 _atom_site_fract_z
 _atom_site_occupancy
  Rb  Rb0  1  0.00037448  0.02969649  0.01370939  1
  Na  Na1  1  0.00453775  0.04733416  0.59561975  1
  Na  Na2  1  0.49460323  -0.01605810  0.06691445  1
  Cs  Cs3  1  0.50913159  -0.00008125  0.52599546  1
  Ge  Ge4  1  0.25263040  0.44689715  0.22080095  1
  Sn  Sn5  1  0.24782464  0.54413805  0.75247190  1
  Ge  Ge6  1  0.76925585  0.42355137  0.29224664  1
  Ge  Ge7  1  0.73567019  0.63010630  0.78572045  1
  Cl  Cl8  1  0.15693418  0.51574492  0.02235908  1
  Br  Br9  1  0.31250344  0.50770066  0.50923801  1
  Br  Br10  1  0.79922824  0.56424589  0.00373059  1
  Cl  Cl11  1  0.70246662  0.47035912  0.49749442  1
  Br  Br12  1  -0.01731252  0.27606017  0.33933816  1
  Br  Br13  1  0.00984734  0.53603737  0.68525489  1
  Br  Br14  1  0.47258104  0.49391756  0.15215993  1
  Cl  Cl15  1  0.52972062  0.76703871  0.83022436  1
  Cl  Cl16  1  0.26882245  0.03304098  0.19593747  1
  Cl  Cl17  1  0.21533780  0.02019306  0.74643883  1
  Br  Br18  1  0.69513166  0.00698792  0.25128258  1
  Cl  Cl19  1  0.80520743  0.02302887  0.76201423  1
