# generated using pymatgen
data_K2RbNaSn2Ge2I3(Br2Cl)3
_symmetry_space_group_name_H-M   'P 1'
_cell_length_a   11.13736006
_cell_length_b   6.01461245
_cell_length_c   11.09418511
_cell_angle_alpha   90.00000000
_cell_angle_beta   90.00000000
_cell_angle_gamma   90.00000000
_symmetry_Int_Tables_number   1
_chemical_formula_structural   K2RbNaSn2Ge2I3(Br2Cl)3
_chemical_formula_sum   'K2 Rb1 Na1 Sn2 Ge2 I3 Br6 Cl3'
_cell_volume   743.16511810
_cell_formula_units_Z   1
loop_
 _symmetry_equiv_pos_site_id
 _symmetry_equiv_pos_as_xyz
  1  'x, y, z'
loop_
 _atom_site_type_symbol
 _atom_site_label
 _atom_site_symmetry_multiplicity
 _atom_site_fract_x
 _atom_site_fract_y
 _atom_site_fract_z
 _atom_site_occupancy
  Na  Na0  1  0.02028188  0.00000214  0.05946427  1
  K  K1  1  -0.00608885  0.00000074  0.52213828  1
  Rb  Rb2  1  0.50012981  0.00000049  -0.00472061  1
  K  K3  1  0.51433748  0.00000033  0.49394772  1
  Ge  Ge4  1  0.25149720  0.50000059  0.21710638  1
  Sn  Sn5  1  0.23562869  0.50000011  0.74385128  1
  Sn  Sn6  1  0.76930393  0.50000569  0.24766955  1
  Ge  Ge7  1  0.75722858  0.50000039  0.75674595  1
  Cl  Cl8  1  0.33671237  0.50000011  0.01515996  1
  Br  Br9  1  0.17285468  0.50000008  0.49803524  1
  Br  Br10  1  0.68114947  0.50000044  -0.00891734  1
  Br  Br11  1  0.82469576  0.50000108  0.50155545  1
  Cl  Cl12  1  0.04165294  0.50000187  0.14047086  1
  Cl  Cl13  1  -0.03414878  0.49999987  0.81245658  1
  Br  Br14  1  0.52516041  0.50000016  0.31185733  1
  Br  Br15  1  0.47961222  0.50000001  0.67604271  1
  I  I16  1  0.25131661  0.00000060  0.24962577  1
  I  I17  1  0.19731564  0.00000013  0.81179830  1
  Br  Br18  1  0.80271064  0.00001916  0.24104931  1
  I  I19  1  0.73463123  0.00000047  0.73923290  1
