# generated using pymatgen
data_CsK2RbSn3GeI3(Br2Cl)3
_symmetry_space_group_name_H-M   'P 1'
_cell_length_a   11.61650914
_cell_length_b   5.74426157
_cell_length_c   12.25585204
_cell_angle_alpha   90.00000000
_cell_angle_beta   90.00000000
_cell_angle_gamma   90.00000000
_symmetry_Int_Tables_number   1
_chemical_formula_structural   CsK2RbSn3GeI3(Br2Cl)3
_chemical_formula_sum   'Cs1 K2 Rb1 Sn3 Ge1 I3 Br6 Cl3'
_cell_volume   817.81176764
_cell_formula_units_Z   1
loop_
 _symmetry_equiv_pos_site_id
 _symmetry_equiv_pos_as_xyz
  1  'x, y, z'
loop_
 _atom_site_type_symbol
 _atom_site_label
 _atom_site_symmetry_multiplicity
 _atom_site_fract_x
 _atom_site_fract_y
 _atom_site_fract_z
 _atom_site_occupancy
  K  K0  1  0.00144416  -0.00122858  0.07420340  1
  Cs  Cs1  1  0.04679265  -0.00805312  0.48083226  1
  Rb  Rb2  1  0.49546271  0.00024781  -0.03416073  1
  K  K3  1  0.48621007  -0.00349208  0.57175707  1
  Ge  Ge4  1  0.26910206  0.51575338  0.21230248  1
  Sn  Sn5  1  0.25252772  0.49567349  0.74699416  1
  Sn  Sn6  1  0.75064014  0.49465528  0.25055409  1
  Sn  Sn7  1  0.72612789  0.49411911  0.74982391  1
  Br  Br8  1  0.18743373  0.50385065  0.01640223  1
  Br  Br9  1  0.30213058  0.49393420  0.52343080  1
  I  I10  1  0.81153306  0.49517507  -0.00124701  1
  I  I11  1  0.66485989  0.49821670  0.49963151  1
  Br  Br12  1  -0.00643436  0.49171464  0.28796790  1
  I  I13  1  -0.01134988  0.49185135  0.68544330  1
  Br  Br14  1  0.48321427  0.50623622  0.15181974  1
  Cl  Cl15  1  0.48831520  0.49868252  0.80891835  1
  Br  Br16  1  0.25430563  -0.03301474  0.23348014  1
  Cl  Cl17  1  0.27363856  -0.00387981  0.74712497  1
  Br  Br18  1  0.76331985  -0.00640042  0.24687358  1
  Cl  Cl19  1  0.69523151  0.00180282  0.75429278  1
