# generated using pymatgen
data_CsKSnGe(ICl)3
_symmetry_space_group_name_H-M   'P 1'
_cell_length_a   11.33228793
_cell_length_b   6.07053588
_cell_length_c   11.60423813
_cell_angle_alpha   90.00000000
_cell_angle_beta   90.00000000
_cell_angle_gamma   90.00000000
_symmetry_Int_Tables_number   1
_chemical_formula_structural   CsKSnGe(ICl)3
_chemical_formula_sum   'Cs2 K2 Sn2 Ge2 I6 Cl6'
_cell_volume   798.29105571
_cell_formula_units_Z   2
loop_
 _symmetry_equiv_pos_site_id
 _symmetry_equiv_pos_as_xyz
  1  'x, y, z'
loop_
 _atom_site_type_symbol
 _atom_site_label
 _atom_site_symmetry_multiplicity
 _atom_site_fract_x
 _atom_site_fract_y
 _atom_site_fract_z
 _atom_site_occupancy
  Cs  Cs0  1  0.02889888  -0.00043708  -0.00382521  1
  K  K1  1  0.01696994  -0.00208117  0.47733460  1
  K  K2  1  0.53181771  0.00049422  0.02122326  1
  Cs  Cs3  1  0.54199631  0.00449663  0.52060196  1
  Sn  Sn4  1  0.22501624  0.51415644  0.26499810  1
  Sn  Sn5  1  0.23398478  0.50290742  0.73830928  1
  Ge  Ge6  1  0.75895460  0.50232284  0.21914995  1
  Ge  Ge7  1  0.74163578  0.50093789  0.74975553  1
  I  I8  1  0.31903507  0.50595488  -0.00462843  1
  Cl  Cl9  1  0.15137827  0.50011416  0.49147112  1
  Cl  Cl10  1  0.68390828  0.50182410  0.02373577  1
  I  I11  1  0.80366610  0.50013895  0.51425472  1
  Cl  Cl12  1  -0.02952655  0.49964707  0.16523402  1
  Cl  Cl13  1  0.01629496  0.50204412  0.81139605  1
  I  I14  1  0.48614267  0.50668406  0.31937136  1
  Cl  Cl15  1  0.53190668  0.50194058  0.70886496  1
  Cl  Cl16  1  0.20922379  -0.04464645  0.26381172  1
  I  I17  1  0.24559716  0.00257310  0.71059024  1
  I  I18  1  0.76126925  0.00202615  0.24650626  1
  I  I19  1  0.75297171  0.00214166  0.78446898  1
