# generated using pymatgen
data_CsRbNa2SnGe3(ICl3)3
_symmetry_space_group_name_H-M   'P 1'
_cell_length_a   11.15680835
_cell_length_b   5.68063653
_cell_length_c   11.43511243
_cell_angle_alpha   90.00000000
_cell_angle_beta   90.00000000
_cell_angle_gamma   90.00000000
_symmetry_Int_Tables_number   1
_chemical_formula_structural   CsRbNa2SnGe3(ICl3)3
_chemical_formula_sum   'Cs1 Rb1 Na2 Sn1 Ge3 I3 Cl9'
_cell_volume   724.73196043
_cell_formula_units_Z   1
loop_
 _symmetry_equiv_pos_site_id
 _symmetry_equiv_pos_as_xyz
  1  'x, y, z'
loop_
 _atom_site_type_symbol
 _atom_site_label
 _atom_site_symmetry_multiplicity
 _atom_site_fract_x
 _atom_site_fract_y
 _atom_site_fract_z
 _atom_site_occupancy
  Cs  Cs0  1  -0.00814029  0.01619690  -0.00423879  1
  Na  Na1  1  0.08078731  -0.05257882  0.49478252  1
  Na  Na2  1  0.57547156  -0.09197814  0.00003645  1
  Rb  Rb3  1  0.49813872  -0.02982755  0.52446618  1
  Ge  Ge4  1  0.23501661  0.52009802  0.27525026  1
  Sn  Sn5  1  0.24064181  0.51598125  0.75634344  1
  Ge  Ge6  1  0.77017075  0.55765329  0.25803338  1
  Ge  Ge7  1  0.72270069  0.49500052  0.76665160  1
  I  I8  1  0.30766770  0.68745510  0.00087482  1
  Cl  Cl9  1  0.16454769  0.45402605  0.48269878  1
  Cl  Cl10  1  0.66536445  0.42774700  -0.02841047  1
  I  I11  1  0.81570807  0.71733108  0.48786638  1
  Cl  Cl12  1  -0.01978387  0.52550954  0.19070067  1
  Cl  Cl13  1  0.01023208  0.51284472  0.80733341  1
  I  I14  1  0.48668460  0.47005515  0.31454670  1
  Cl  Cl15  1  0.51882710  0.46903175  0.68760931  1
  Cl  Cl16  1  0.23215108  -0.05826103  0.30299284  1
  Cl  Cl17  1  0.23504472  -0.03617590  0.68744047  1
  Cl  Cl18  1  0.73670164  -0.04761577  0.18572842  1
  Cl  Cl19  1  0.71303625  -0.08130623  0.79297966  1
