# generated using pymatgen
data_Rb3NaSn2Ge2I3(BrCl2)3
_symmetry_space_group_name_H-M   'P 1'
_cell_length_a   11.23130676
_cell_length_b   5.84822802
_cell_length_c   11.33453726
_cell_angle_alpha   90.00000000
_cell_angle_beta   90.00000000
_cell_angle_gamma   90.00000000
_symmetry_Int_Tables_number   1
_chemical_formula_structural   Rb3NaSn2Ge2I3(BrCl2)3
_chemical_formula_sum   'Rb3 Na1 Sn2 Ge2 I3 Br3 Cl6'
_cell_volume   744.48916392
_cell_formula_units_Z   1
loop_
 _symmetry_equiv_pos_site_id
 _symmetry_equiv_pos_as_xyz
  1  'x, y, z'
loop_
 _atom_site_type_symbol
 _atom_site_label
 _atom_site_symmetry_multiplicity
 _atom_site_fract_x
 _atom_site_fract_y
 _atom_site_fract_z
 _atom_site_occupancy
  Rb  Rb0  1  0.00127987  -0.01485839  -0.01397687  1
  Rb  Rb1  1  -0.00384845  0.01451364  0.48476883  1
  Na  Na2  1  0.49233807  0.07742760  -0.04501213  1
  Rb  Rb3  1  0.46700331  0.02067019  0.52881845  1
  Sn  Sn4  1  0.24936325  0.50177123  0.26542598  1
  Ge  Ge5  1  0.26857884  0.51153662  0.75961985  1
  Sn  Sn6  1  0.76838370  0.51342726  0.23016796  1
  Ge  Ge7  1  0.77884271  0.50133092  0.75614723  1
  Br  Br8  1  0.18032762  0.47144832  0.02956116  1
  Cl  Cl9  1  0.29493971  0.52514395  0.54492206  1
  Cl  Cl10  1  0.84332856  0.49353521  -0.03298910  1
  I  I11  1  0.67584436  0.51333363  0.48354601  1
  Cl  Cl12  1  0.01617781  0.51570922  0.33278717  1
  Cl  Cl13  1  -0.01911388  0.50719492  0.68403755  1
  I  I14  1  0.51319284  0.54565804  0.12673964  1
  Cl  Cl15  1  0.47884286  0.46403221  0.79176031  1
  Cl  Cl16  1  0.25484089  0.04363060  0.30175221  1
  Br  Br17  1  0.26857024  -0.03581921  0.78741227  1
  Br  Br18  1  0.79745631  0.00718794  0.22801355  1
  I  I19  1  0.72715275  -0.00193114  0.76657393  1
