# generated using pymatgen
data_CsKNa2SnGe3(ICl)6
_symmetry_space_group_name_H-M   'P 1'
_cell_length_a   11.06174662
_cell_length_b   6.02276720
_cell_length_c   11.38644906
_cell_angle_alpha   90.00000000
_cell_angle_beta   90.00000000
_cell_angle_gamma   90.00000000
_symmetry_Int_Tables_number   1
_chemical_formula_structural   CsKNa2SnGe3(ICl)6
_chemical_formula_sum   'Cs1 K1 Na2 Sn1 Ge3 I6 Cl6'
_cell_volume   758.59170765
_cell_formula_units_Z   1
loop_
 _symmetry_equiv_pos_site_id
 _symmetry_equiv_pos_as_xyz
  1  'x, y, z'
loop_
 _atom_site_type_symbol
 _atom_site_label
 _atom_site_symmetry_multiplicity
 _atom_site_fract_x
 _atom_site_fract_y
 _atom_site_fract_z
 _atom_site_occupancy
  Na  Na0  1  -0.05332311  -0.12343064  0.02404636  1
  Cs  Cs1  1  0.00200328  0.02102218  0.50482800  1
  Na  Na2  1  0.52409107  0.11352765  -0.05554607  1
  K  K3  1  0.46884232  0.01847015  0.43887491  1
  Ge  Ge4  1  0.21976692  0.54329199  0.26939065  1
  Sn  Sn5  1  0.24260249  0.52834722  0.73742314  1
  Ge  Ge6  1  0.74988818  0.46619663  0.23007201  1
  Ge  Ge7  1  0.73942446  0.51875256  0.76161582  1
  I  I8  1  0.16805638  0.54083002  -0.00285200  1
  Cl  Cl9  1  0.29827608  0.50768672  0.48137202  1
  Cl  Cl10  1  0.81594523  0.46776362  0.02634209  1
  I  I11  1  0.67419735  0.50731197  0.52105162  1
  Cl  Cl12  1  0.00441765  0.51548350  0.32082190  1
  Cl  Cl13  1  0.01013527  0.52500574  0.68097150  1
  I  I14  1  0.49882079  0.43017653  0.17956818  1
  Cl  Cl15  1  0.53227335  0.53313884  0.83475824  1
  Cl  Cl16  1  0.22996654  -0.05487855  0.27329344  1
  I  I17  1  0.32249966  0.02865893  0.73329858  1
  I  I18  1  0.76344336  -0.02532114  0.24420243  1
  I  I19  1  0.77219492  0.00294886  0.79623083  1
