# generated using pymatgen
data_CsRb2NaSn2Ge2(BrCl)6
_symmetry_space_group_name_H-M   'P 1'
_cell_length_a   11.47987074
_cell_length_b   5.69475772
_cell_length_c   11.27746392
_cell_angle_alpha   90.00000000
_cell_angle_beta   90.00000000
_cell_angle_gamma   90.00000000
_symmetry_Int_Tables_number   1
_chemical_formula_structural   CsRb2NaSn2Ge2(BrCl)6
_chemical_formula_sum   'Cs1 Rb2 Na1 Sn2 Ge2 Br6 Cl6'
_cell_volume   737.26513402
_cell_formula_units_Z   1
loop_
 _symmetry_equiv_pos_site_id
 _symmetry_equiv_pos_as_xyz
  1  'x, y, z'
loop_
 _atom_site_type_symbol
 _atom_site_label
 _atom_site_symmetry_multiplicity
 _atom_site_fract_x
 _atom_site_fract_y
 _atom_site_fract_z
 _atom_site_occupancy
  Cs  Cs0  1  0.01117835  0.00096861  -0.01895781  1
  Rb  Rb1  1  0.07378467  0.00272661  0.47742753  1
  Rb  Rb2  1  0.45822981  -0.00603389  -0.01582995  1
  Na  Na3  1  0.59552810  -0.00069370  0.52248653  1
  Ge  Ge4  1  0.26039916  0.47036786  0.22014628  1
  Sn  Sn5  1  0.24342094  0.49652785  0.73043865  1
  Sn  Sn6  1  0.75690559  0.49786016  0.25468392  1
  Ge  Ge7  1  0.70747928  0.47209029  0.74597679  1
  Cl  Cl8  1  0.21540657  0.50578777  0.00033220  1
  Br  Br9  1  0.29176361  0.49941577  0.48564918  1
  Br  Br10  1  0.79499308  0.49960597  0.00856708  1
  Cl  Cl11  1  0.64381282  0.49947830  0.53277566  1
  Br  Br12  1  0.00336155  0.50853548  0.28557371  1
  Br  Br13  1  0.00201604  0.49922354  0.69385638  1
  Br  Br14  1  0.49066770  0.48593288  0.18556557  1
  Cl  Cl15  1  0.50853317  0.49844586  0.81741837  1
  Cl  Cl16  1  0.24732338  0.04477707  0.21612295  1
  Cl  Cl17  1  0.24453110  -0.00040498  0.74726405  1
  Br  Br18  1  0.76039039  -0.00027271  0.31928099  1
  Cl  Cl19  1  0.70669090  0.04275660  0.74413698  1
