# generated using pymatgen
data_K2Na2Sn2Ge2I6(BrCl)3
_symmetry_space_group_name_H-M   'P 1'
_cell_length_a   10.99131981
_cell_length_b   5.98648622
_cell_length_c   11.71581624
_cell_angle_alpha   90.00000000
_cell_angle_beta   90.00000000
_cell_angle_gamma   90.00000000
_symmetry_Int_Tables_number   1
_chemical_formula_structural   K2Na2Sn2Ge2I6(BrCl)3
_chemical_formula_sum   'K2 Na2 Sn2 Ge2 I6 Br3 Cl3'
_cell_volume   770.89349879
_cell_formula_units_Z   1
loop_
 _symmetry_equiv_pos_site_id
 _symmetry_equiv_pos_as_xyz
  1  'x, y, z'
loop_
 _atom_site_type_symbol
 _atom_site_label
 _atom_site_symmetry_multiplicity
 _atom_site_fract_x
 _atom_site_fract_y
 _atom_site_fract_z
 _atom_site_occupancy
  Na  Na0  1  -0.02177925  -0.09517836  0.09528827  1
  K  K1  1  0.07465356  0.01373835  0.48840324  1
  K  K2  1  0.49059866  -0.03840996  -0.01077067  1
  Na  Na3  1  0.55550957  -0.08254159  0.52672432  1
  Ge  Ge4  1  0.24617869  0.47714680  0.21893022  1
  Sn  Sn5  1  0.26458146  0.53709792  0.75179462  1
  Sn  Sn6  1  0.73035330  0.47225743  0.24902567  1
  Ge  Ge7  1  0.73622080  0.45820852  0.77386464  1
  Br  Br8  1  0.20187586  0.69163548  -0.02523517  1
  I  I9  1  0.30656024  0.55963897  0.45301979  1
  I  I10  1  0.85659459  0.41670335  0.00493349  1
  I  I11  1  0.66695400  0.42149490  0.51587760  1
  Br  Br12  1  -0.02761237  0.58336920  0.30905690  1
  I  I13  1  0.00400911  0.49606734  0.66878962  1
  Cl  Cl14  1  0.45662295  0.40626803  0.16328733  1
  Cl  Cl15  1  0.52478930  0.47141996  0.85638292  1
  Cl  Cl16  1  0.18604136  0.08417442  0.22759074  1
  I  I17  1  0.33114274  0.02070866  0.69271423  1
  Br  Br18  1  0.69486686  -0.06327530  0.22337724  1
  I  I19  1  0.73469008  -0.05028536  0.76047944  1
