# generated using pymatgen
data_Rb3NaSnGe3I3(BrCl2)3
_symmetry_space_group_name_H-M   'P 1'
_cell_length_a   11.39012738
_cell_length_b   5.71328486
_cell_length_c   11.50232556
_cell_angle_alpha   90.00000000
_cell_angle_beta   90.00000000
_cell_angle_gamma   90.00000000
_symmetry_Int_Tables_number   1
_chemical_formula_structural   Rb3NaSnGe3I3(BrCl2)3
_chemical_formula_sum   'Rb3 Na1 Sn1 Ge3 I3 Br3 Cl6'
_cell_volume   748.51432233
_cell_formula_units_Z   1
loop_
 _symmetry_equiv_pos_site_id
 _symmetry_equiv_pos_as_xyz
  1  'x, y, z'
loop_
 _atom_site_type_symbol
 _atom_site_label
 _atom_site_symmetry_multiplicity
 _atom_site_fract_x
 _atom_site_fract_y
 _atom_site_fract_z
 _atom_site_occupancy
  Rb  Rb0  1  0.05111392  -0.01382976  0.01348562  1
  Rb  Rb1  1  -0.00800388  0.00849447  0.51672028  1
  Na  Na2  1  0.51625862  -0.08909249  0.11499599  1
  Rb  Rb3  1  0.51217204  0.02145981  0.49600128  1
  Ge  Ge4  1  0.26496336  0.49304552  0.27335143  1
  Sn  Sn5  1  0.26859825  0.50878515  0.73546766  1
  Ge  Ge6  1  0.74969672  0.44547840  0.24110822  1
  Ge  Ge7  1  0.75465451  0.46330536  0.71379437  1
  I  I8  1  0.30849945  0.58603918  0.00071014  1
  Cl  Cl9  1  0.19242577  0.49056200  0.47951222  1
  I  I10  1  0.66880500  0.44270108  0.01076866  1
  Cl  Cl11  1  0.81814816  0.50724341  0.51026815  1
  Br  Br12  1  -0.02568724  0.44905354  0.19854812  1
  I  I13  1  0.00203380  0.49001852  0.80980652  1
  Cl  Cl14  1  0.47537113  0.55326646  0.31166195  1
  Br  Br15  1  0.51717857  0.51653782  0.66492636  1
  Cl  Cl16  1  0.28797550  0.07181762  0.25145740  1
  Br  Br17  1  0.25016182  -0.00240406  0.69460029  1
  Cl  Cl18  1  0.71936828  0.02195539  0.26590747  1
  Cl  Cl19  1  0.75244555  0.04377675  0.70161050  1
