# generated using pymatgen
data_Cs2RbNaSn2Ge2(IBr3)3
_symmetry_space_group_name_H-M   'P 1'
_cell_length_a   11.82410847
_cell_length_b   6.11741273
_cell_length_c   11.81956260
_cell_angle_alpha   90.00000000
_cell_angle_beta   90.00000000
_cell_angle_gamma   90.00000000
_symmetry_Int_Tables_number   1
_chemical_formula_structural   Cs2RbNaSn2Ge2(IBr3)3
_chemical_formula_sum   'Cs2 Rb1 Na1 Sn2 Ge2 I3 Br9'
_cell_volume   854.94384954
_cell_formula_units_Z   1
loop_
 _symmetry_equiv_pos_site_id
 _symmetry_equiv_pos_as_xyz
  1  'x, y, z'
loop_
 _atom_site_type_symbol
 _atom_site_label
 _atom_site_symmetry_multiplicity
 _atom_site_fract_x
 _atom_site_fract_y
 _atom_site_fract_z
 _atom_site_occupancy
  Na  Na0  1  -0.00146013  -0.44150189  0.00042510  1
  Cs  Cs1  1  -0.00927532  0.01875291  0.51580645  1
  Cs  Cs2  1  0.48275095  0.01779253  0.01417484  1
  Rb  Rb3  1  0.48476120  -0.04783303  0.51688269  1
  Ge  Ge4  1  0.25505881  0.46787808  0.27535197  1
  Sn  Sn5  1  0.24398421  0.52248558  0.76022410  1
  Sn  Sn6  1  0.73296746  0.51946596  0.26856841  1
  Ge  Ge7  1  0.72868613  0.47219448  0.74461505  1
  Br  Br8  1  0.24851225  0.52668003  0.00286620  1
  Br  Br9  1  0.24855834  0.50815540  0.49716688  1
  I  I10  1  0.72920190  0.53176643  0.00358214  1
  Br  Br11  1  0.75231553  0.54601677  0.51946283  1
  I  I12  1  -0.00372603  0.53082628  0.26537679  1
  Br  Br13  1  0.00244436  0.53263965  0.75357405  1
  Br  Br14  1  0.48016661  0.53931955  0.26205032  1
  Br  Br15  1  0.50705322  0.50782741  0.73873638  1
  Br  Br16  1  0.26168753  0.05221980  0.27573344  1
  Br  Br17  1  0.26229504  -0.01488036  0.74445121  1
  I  I18  1  0.71593643  0.02404059  0.28369582  1
  Br  Br19  1  0.73090428  0.05729364  0.73867530  1
