# generated using pymatgen
data_KRbNa2Sn2Ge2(IBr3)3
_symmetry_space_group_name_H-M   'P 1'
_cell_length_a   11.68018914
_cell_length_b   5.90121899
_cell_length_c   11.16264066
_cell_angle_alpha   90.00000000
_cell_angle_beta   90.00000000
_cell_angle_gamma   90.00000000
_symmetry_Int_Tables_number   1
_chemical_formula_structural   KRbNa2Sn2Ge2(IBr3)3
_chemical_formula_sum   'K1 Rb1 Na2 Sn2 Ge2 I3 Br9'
_cell_volume   769.41128403
_cell_formula_units_Z   1
loop_
 _symmetry_equiv_pos_site_id
 _symmetry_equiv_pos_as_xyz
  1  'x, y, z'
loop_
 _atom_site_type_symbol
 _atom_site_label
 _atom_site_symmetry_multiplicity
 _atom_site_fract_x
 _atom_site_fract_y
 _atom_site_fract_z
 _atom_site_occupancy
  K  K0  1  -0.01613471  -0.00269381  0.01270170  1
  Na  Na1  1  -0.09689884  -0.15013219  0.49792836  1
  Na  Na2  1  0.41873840  0.01417696  0.02386930  1
  Rb  Rb3  1  0.51024280  0.00088641  0.55171175  1
  Sn  Sn4  1  0.23874823  0.50686326  0.24373736  1
  Sn  Sn5  1  0.25327612  0.48833495  0.74450244  1
  Ge  Ge6  1  0.74466576  0.51346454  0.24865885  1
  Ge  Ge7  1  0.75370678  0.50373578  0.75728776  1
  Br  Br8  1  0.15268902  0.50098880  -0.00909957  1
  Br  Br9  1  0.33729762  0.49987487  0.49132404  1
  Br  Br10  1  0.81247149  0.49969046  -0.01872287  1
  Br  Br11  1  0.69162893  0.51562734  0.47848254  1
  Br  Br12  1  -0.03058134  0.54232093  0.29187988  1
  I  I13  1  0.01277208  0.41585014  0.64895409  1
  I  I14  1  0.48190061  0.51382098  0.13906190  1
  Br  Br15  1  0.52984627  0.49944078  0.78345024  1
  Br  Br16  1  0.23726145  0.00914822  0.21801361  1
  Br  Br17  1  0.29272914  0.00714081  0.78755654  1
  I  I18  1  0.73983540  0.01832694  0.24344909  1
  Br  Br19  1  0.77758886  -0.05199587  0.72968507  1
