# generated using pymatgen
data_CsK2RbSnGe3I3(Br2Cl)3
_symmetry_space_group_name_H-M   'P 1'
_cell_length_a   11.49275418
_cell_length_b   5.94795147
_cell_length_c   11.19356176
_cell_angle_alpha   90.00000000
_cell_angle_beta   90.00000000
_cell_angle_gamma   90.00000000
_symmetry_Int_Tables_number   1
_chemical_formula_structural   CsK2RbSnGe3I3(Br2Cl)3
_chemical_formula_sum   'Cs1 K2 Rb1 Sn1 Ge3 I3 Br6 Cl3'
_cell_volume   765.17334640
_cell_formula_units_Z   1
loop_
 _symmetry_equiv_pos_site_id
 _symmetry_equiv_pos_as_xyz
  1  'x, y, z'
loop_
 _atom_site_type_symbol
 _atom_site_label
 _atom_site_symmetry_multiplicity
 _atom_site_fract_x
 _atom_site_fract_y
 _atom_site_fract_z
 _atom_site_occupancy
  K  K0  1  -0.01505097  0.00376994  -0.02956869  1
  Cs  Cs1  1  0.01223029  0.00895715  0.46783566  1
  Rb  Rb2  1  0.49665484  0.00297357  0.01472027  1
  K  K3  1  0.48915624  -0.00749628  0.50693401  1
  Ge  Ge4  1  0.26268048  0.54068224  0.27753929  1
  Ge  Ge5  1  0.27292374  0.50184059  0.76120028  1
  Sn  Sn6  1  0.74253088  0.50459856  0.25125641  1
  Ge  Ge7  1  0.77335354  0.50463187  0.75470284  1
  Br  Br8  1  0.31324392  0.49855556  -0.01167884  1
  Cl  Cl9  1  0.19798579  0.51227595  0.48258674  1
  Br  Br10  1  0.67339081  0.50523216  0.00970967  1
  Br  Br11  1  0.81914223  0.50692624  0.52200600  1
  I  I12  1  0.00660432  0.50756895  0.18113779  1
  Cl  Cl13  1  -0.02530527  0.50311551  0.81770596  1
  Br  Br14  1  0.49281609  0.48921952  0.33688022  1
  Br  Br15  1  0.48545532  0.49920269  0.69313119  1
  Cl  Cl16  1  0.27650741  -0.05248450  0.27432528  1
  I  I17  1  0.23701357  0.00193286  0.74801363  1
  Br  Br18  1  0.73569880  0.00422306  0.25561163  1
  I  I19  1  0.73835816  0.00396323  0.75858149  1
