# generated using pymatgen
data_Cs2K2SnGe3(BrCl3)3
_symmetry_space_group_name_H-M   'P 1'
_cell_length_a   10.90398389
_cell_length_b   5.74661001
_cell_length_c   11.08002519
_cell_angle_alpha   90.00000000
_cell_angle_beta   90.00000000
_cell_angle_gamma   90.00000000
_symmetry_Int_Tables_number   1
_chemical_formula_structural   Cs2K2SnGe3(BrCl3)3
_chemical_formula_sum   'Cs2 K2 Sn1 Ge3 Br3 Cl9'
_cell_volume   694.28482606
_cell_formula_units_Z   1
loop_
 _symmetry_equiv_pos_site_id
 _symmetry_equiv_pos_as_xyz
  1  'x, y, z'
loop_
 _atom_site_type_symbol
 _atom_site_label
 _atom_site_symmetry_multiplicity
 _atom_site_fract_x
 _atom_site_fract_y
 _atom_site_fract_z
 _atom_site_occupancy
  K  K0  1  -0.01498996  -0.00200907  -0.00491465  1
  K  K1  1  0.01035826  -0.00086766  0.46239040  1
  Cs  Cs2  1  0.50532980  0.00070746  0.00062100  1
  Cs  Cs3  1  0.51329138  0.01382317  0.50207958  1
  Ge  Ge4  1  0.26753542  0.53034511  0.23945557  1
  Sn  Sn5  1  0.25244463  0.50701724  0.75001399  1
  Ge  Ge6  1  0.76909080  0.52221059  0.23049764  1
  Ge  Ge7  1  0.76960953  0.53046401  0.75397392  1
  Cl  Cl8  1  0.30719571  0.50569182  0.01332329  1
  Br  Br9  1  0.19325380  0.49534522  0.49667845  1
  Cl  Cl10  1  0.70596046  0.49952935  0.01907728  1
  Br  Br11  1  0.81483430  0.50649153  0.51887048  1
  Cl  Cl12  1  -0.01368877  0.47975167  0.18502122  1
  Cl  Cl13  1  -0.01469082  0.50541043  0.82629906  1
  Cl  Cl14  1  0.48591490  0.52527665  0.29128491  1
  Cl  Cl15  1  0.49795386  0.51013704  0.70644823  1
  Cl  Cl16  1  0.24501755  -0.04660307  0.24174221  1
  Br  Br17  1  0.23147573  0.00599356  0.75733014  1
  Cl  Cl18  1  0.77754400  -0.05112171  0.23796996  1
  Cl  Cl19  1  0.76284375  -0.04677368  0.76454137  1
