# generated using pymatgen
data_CsK2RbSn3Ge(IBr3)3
_symmetry_space_group_name_H-M   'P 1'
_cell_length_a   11.61056480
_cell_length_b   5.90051019
_cell_length_c   12.02402550
_cell_angle_alpha   90.00000000
_cell_angle_beta   90.00000000
_cell_angle_gamma   90.00000000
_symmetry_Int_Tables_number   1
_chemical_formula_structural   CsK2RbSn3Ge(IBr3)3
_chemical_formula_sum   'Cs1 K2 Rb1 Sn3 Ge1 I3 Br9'
_cell_volume   823.74501536
_cell_formula_units_Z   1
loop_
 _symmetry_equiv_pos_site_id
 _symmetry_equiv_pos_as_xyz
  1  'x, y, z'
loop_
 _atom_site_type_symbol
 _atom_site_label
 _atom_site_symmetry_multiplicity
 _atom_site_fract_x
 _atom_site_fract_y
 _atom_site_fract_z
 _atom_site_occupancy
  Cs  Cs0  1  0.02541082  -0.00046116  0.00412544  1
  K  K1  1  -0.01955126  0.00243986  0.43861434  1
  Rb  Rb2  1  0.51852459  0.01066171  -0.03586541  1
  K  K3  1  0.53387889  -0.00390290  0.52451286  1
  Sn  Sn4  1  0.24569799  0.50418554  0.26347343  1
  Sn  Sn5  1  0.25551249  0.50354063  0.75300106  1
  Ge  Ge6  1  0.74729304  0.52915610  0.23400820  1
  Sn  Sn7  1  0.76325305  0.50223390  0.73897692  1
  I  I8  1  0.32054684  0.50847742  0.00789012  1
  I  I9  1  0.15881498  0.50257747  0.50796787  1
  Br  Br10  1  0.69701360  0.51509396  0.02214573  1
  Br  Br11  1  0.80384403  0.49913466  0.51059148  1
  Br  Br12  1  -0.01930386  0.49969385  0.20465197  1
  Br  Br13  1  0.01088110  0.50017681  0.81659400  1
  I  I14  1  0.49869201  0.49309150  0.33819350  1
  Br  Br15  1  0.51243498  0.50031310  0.69385763  1
  Br  Br16  1  0.22459831  0.00516478  0.25984180  1
  Br  Br17  1  0.27665038  0.00624488  0.76074259  1
  Br  Br18  1  0.74639994  -0.03360185  0.25358911  1
  Br  Br19  1  0.74640277  0.00269886  0.74835175  1
