# generated using pymatgen
data_KRbNa2Sn2Ge2(I3Br)3
_symmetry_space_group_name_H-M   'P 1'
_cell_length_a   11.84561477
_cell_length_b   6.05587923
_cell_length_c   11.63507019
_cell_angle_alpha   90.00000000
_cell_angle_beta   90.00000000
_cell_angle_gamma   90.00000000
_symmetry_Int_Tables_number   1
_chemical_formula_structural   KRbNa2Sn2Ge2(I3Br)3
_chemical_formula_sum   'Rb1 K1 Na2 Sn2 Ge2 I9 Br3'
_cell_volume   834.64888525
_cell_formula_units_Z   1
loop_
 _symmetry_equiv_pos_site_id
 _symmetry_equiv_pos_as_xyz
  1  'x, y, z'
loop_
 _atom_site_type_symbol
 _atom_site_label
 _atom_site_symmetry_multiplicity
 _atom_site_fract_x
 _atom_site_fract_y
 _atom_site_fract_z
 _atom_site_occupancy
  Rb  Rb0  1  0.01054750  -0.00852520  -0.04210477  1
  Na  Na1  1  -0.07031244  -0.05701636  0.48555709  1
  K  K2  1  0.43962957  0.00657707  0.00806544  1
  Na  Na3  1  0.57053909  0.09263102  0.50204427  1
  Sn  Sn4  1  0.24228855  0.46984810  0.25924400  1
  Sn  Sn5  1  0.25095497  0.47809781  0.75480129  1
  Ge  Ge6  1  0.75087108  0.49015106  0.24625209  1
  Ge  Ge7  1  0.73646046  0.53363855  0.73119515  1
  Br  Br8  1  0.18484561  0.48906775  -0.00309283  1
  I  I9  1  0.33149435  0.33499595  0.50119646  1
  I  I10  1  0.81809541  0.49462340  0.01444313  1
  Br  Br11  1  0.66774474  0.56591379  0.51654925  1
  I  I12  1  -0.01813348  0.47152264  0.35324358  1
  I  I13  1  -0.01322247  0.58048447  0.69709457  1
  I  I14  1  0.49947937  0.50031776  0.18919180  1
  I  I15  1  0.50271658  0.51358034  0.83127927  1
  I  I16  1  0.20347626  -0.01685817  0.21473011  1
  Br  Br17  1  0.25190992  0.00799346  0.78268245  1
  I  I18  1  0.73688564  0.01246820  0.28173411  1
  I  I19  1  0.75147454  0.05616222  0.71510194  1
