# generated using pymatgen
data_CsNa3Sn2Ge2I3(Br2Cl)3
_symmetry_space_group_name_H-M   'P 1'
_cell_length_a   11.11464058
_cell_length_b   6.06509801
_cell_length_c   11.66878847
_cell_angle_alpha   90.00000000
_cell_angle_beta   90.00000000
_cell_angle_gamma   90.00000000
_symmetry_Int_Tables_number   1
_chemical_formula_structural   CsNa3Sn2Ge2I3(Br2Cl)3
_chemical_formula_sum   'Cs1 Na3 Sn2 Ge2 I3 Br6 Cl3'
_cell_volume   786.60918629
_cell_formula_units_Z   1
loop_
 _symmetry_equiv_pos_site_id
 _symmetry_equiv_pos_as_xyz
  1  'x, y, z'
loop_
 _atom_site_type_symbol
 _atom_site_label
 _atom_site_symmetry_multiplicity
 _atom_site_fract_x
 _atom_site_fract_y
 _atom_site_fract_z
 _atom_site_occupancy
  Na  Na0  1  0.07518079  0.00059179  0.07066874  1
  Cs  Cs1  1  0.02223489  -0.01094284  0.51001820  1
  Na  Na2  1  0.61325660  0.18425295  -0.04102881  1
  Na  Na3  1  0.49088824  -0.16347689  0.58728397  1
  Sn  Sn4  1  0.26861751  0.48929312  0.25188205  1
  Ge  Ge5  1  0.26593384  0.47189812  0.73813151  1
  Sn  Sn6  1  0.75770545  0.51802511  0.23218030  1
  Ge  Ge7  1  0.77763802  0.50329316  0.72882153  1
  I  I8  1  0.16550992  0.49869297  0.01024387  1
  Cl  Cl9  1  0.30746680  0.53659639  0.53020587  1
  Cl  Cl10  1  0.80475696  0.49060085  -0.06658418  1
  Br  Br11  1  0.68321059  0.57244934  0.45779266  1
  Br  Br12  1  0.01784716  0.49533276  0.32331495  1
  Cl  Cl13  1  -0.01125310  0.49504983  0.68099675  1
  Br  Br14  1  0.51662507  0.48606329  0.13929885  1
  Br  Br15  1  0.48918344  0.53284362  0.79756343  1
  Br  Br16  1  0.25701512  0.00658749  0.25691124  1
  Br  Br17  1  0.27399389  0.04711532  0.73298569  1
  I  I18  1  0.80303094  0.00524503  0.15865136  1
  I  I19  1  0.73135345  0.01537429  0.71667522  1
