# generated using pymatgen
data_KRb2NaSn3GeI3(BrCl2)3
_symmetry_space_group_name_H-M   'P 1'
_cell_length_a   10.91885888
_cell_length_b   5.98092931
_cell_length_c   11.54602713
_cell_angle_alpha   90.00000000
_cell_angle_beta   90.00000000
_cell_angle_gamma   90.00000000
_symmetry_Int_Tables_number   1
_chemical_formula_structural   KRb2NaSn3GeI3(BrCl2)3
_chemical_formula_sum   'K1 Rb2 Na1 Sn3 Ge1 I3 Br3 Cl6'
_cell_volume   754.01241348
_cell_formula_units_Z   1
loop_
 _symmetry_equiv_pos_site_id
 _symmetry_equiv_pos_as_xyz
  1  'x, y, z'
loop_
 _atom_site_type_symbol
 _atom_site_label
 _atom_site_symmetry_multiplicity
 _atom_site_fract_x
 _atom_site_fract_y
 _atom_site_fract_z
 _atom_site_occupancy
  K  K0  1  -0.02459118  -0.02401605  -0.03291107  1
  Rb  Rb1  1  0.04131722  -0.01876890  0.52143381  1
  Rb  Rb2  1  0.46360633  0.01396975  -0.01866803  1
  Na  Na3  1  0.58537061  -0.01187802  0.45946776  1
  Sn  Sn4  1  0.25772011  0.51835737  0.28941299  1
  Sn  Sn5  1  0.23378893  0.50633498  0.75465263  1
  Ge  Ge6  1  0.74057669  0.50367619  0.18707428  1
  Sn  Sn7  1  0.72238669  0.49708359  0.71289126  1
  I  I8  1  0.17349662  0.46486618  0.02641407  1
  Cl  Cl9  1  0.29657429  0.58190200  0.52915493  1
  Cl  Cl10  1  0.80978544  0.49890941  -0.01649268  1
  Br  Br11  1  0.65562999  0.49211602  0.47458036  1
  Br  Br12  1  0.01053698  0.49258323  0.34019066  1
  Cl  Cl13  1  -0.02724199  0.49185143  0.67968446  1
  Cl  Cl14  1  0.52744679  0.51151334  0.13830925  1
  Cl  Cl15  1  0.47631406  0.51435071  0.81530904  1
  I  I16  1  0.34069394  0.02656606  0.30134448  1
  Cl  Cl17  1  0.20687856  -0.04776395  0.78327344  1
  I  I18  1  0.76028346  0.00055906  0.21926685  1
  Br  Br19  1  0.72403692  -0.00763853  0.70152473  1
