# generated using pymatgen
data_CsRb2NaSn4(ICl3)3
_symmetry_space_group_name_H-M   'P 1'
_cell_length_a   11.86706493
_cell_length_b   5.74708595
_cell_length_c   11.06578959
_cell_angle_alpha   90.00000000
_cell_angle_beta   90.00000000
_cell_angle_gamma   90.00000000
_symmetry_Int_Tables_number   1
_chemical_formula_structural   CsRb2NaSn4(ICl3)3
_chemical_formula_sum   'Cs1 Rb2 Na1 Sn4 I3 Cl9'
_cell_volume   754.69838155
_cell_formula_units_Z   1
loop_
 _symmetry_equiv_pos_site_id
 _symmetry_equiv_pos_as_xyz
  1  'x, y, z'
loop_
 _atom_site_type_symbol
 _atom_site_label
 _atom_site_symmetry_multiplicity
 _atom_site_fract_x
 _atom_site_fract_y
 _atom_site_fract_z
 _atom_site_occupancy
  Rb  Rb0  1  0.01149450  -0.00000000  -0.04419023  1
  Na  Na1  1  -0.02040117  0.00000000  0.40803481  1
  Rb  Rb2  1  0.41705297  0.00000001  0.01256842  1
  Cs  Cs3  1  0.50403238  0.00000001  0.51770378  1
  Sn  Sn4  1  0.22169656  0.50000001  0.27051402  1
  Sn  Sn5  1  0.24847004  0.50000000  0.75631305  1
  Sn  Sn6  1  0.76184364  0.50000032  0.25838900  1
  Sn  Sn7  1  0.78445034  0.50000002  0.75203171  1
  Cl  Cl8  1  0.19803940  0.49999999  0.01537369  1
  Cl  Cl9  1  0.30197480  0.50000000  0.51082089  1
  Cl  Cl10  1  0.84291513  0.50000001  -0.00578092  1
  Cl  Cl11  1  0.68897868  0.50000004  0.48880719  1
  Cl  Cl12  1  -0.01617233  0.49999999  0.35196961  1
  Cl  Cl13  1  0.02503935  0.50000000  0.72246226  1
  I  I14  1  0.48485971  0.50000003  0.21300037  1
  I  I15  1  0.52124054  0.50000000  0.81277264  1
  Cl  Cl16  1  0.19215919  -0.00000001  0.26311154  1
  Cl  Cl17  1  0.25427256  -0.00000000  0.77140208  1
  Cl  Cl18  1  0.78809260  -0.00000040  0.25736421  1
  I  I19  1  0.82748954  -0.00000001  0.65965849  1
