# generated using pymatgen
data_CsKGe2(BrCl)3
_symmetry_space_group_name_H-M   'P 1'
_cell_length_a   11.33046309
_cell_length_b   5.59024784
_cell_length_c   11.03190648
_cell_angle_alpha   90.00000000
_cell_angle_beta   90.00000000
_cell_angle_gamma   90.00000000
_symmetry_Int_Tables_number   1
_chemical_formula_structural   CsKGe2(BrCl)3
_chemical_formula_sum   'Cs2 K2 Ge4 Br6 Cl6'
_cell_volume   698.76202388
_cell_formula_units_Z   2
loop_
 _symmetry_equiv_pos_site_id
 _symmetry_equiv_pos_as_xyz
  1  'x, y, z'
loop_
 _atom_site_type_symbol
 _atom_site_label
 _atom_site_symmetry_multiplicity
 _atom_site_fract_x
 _atom_site_fract_y
 _atom_site_fract_z
 _atom_site_occupancy
  Cs  Cs0  1  -0.00985361  0.00041326  0.00785558  1
  K  K1  1  0.02107588  -0.00188868  0.51680956  1
  K  K2  1  0.53453282  -0.01615325  0.00577972  1
  Cs  Cs3  1  0.49511606  -0.00159669  0.50454368  1
  Ge  Ge4  1  0.25867531  0.48250202  0.26258454  1
  Ge  Ge5  1  0.24913669  0.52408741  0.75720996  1
  Ge  Ge6  1  0.75137273  0.52105476  0.26758087  1
  Ge  Ge7  1  0.76510680  0.52171456  0.73904578  1
  Br  Br8  1  0.20165870  0.50735053  -0.01278860  1
  Cl  Cl9  1  0.28628543  0.49072588  0.48356859  1
  Br  Br10  1  0.77046885  0.49220548  -0.01883413  1
  Cl  Cl11  1  0.69934888  0.50408336  0.48320260  1
  Br  Br12  1  -0.01842972  0.50881242  0.30617710  1
  Cl  Cl13  1  -0.02285035  0.49384902  0.69852494  1
  Br  Br14  1  0.48435760  0.47716798  0.20568546  1
  Br  Br15  1  0.47862284  0.50966824  0.78702069  1
  Br  Br16  1  0.23516024  0.00729563  0.25952024  1
  Cl  Cl17  1  0.23279693  -0.04135600  0.73564784  1
  Cl  Cl18  1  0.73594928  -0.04588217  0.24673504  1
  Cl  Cl19  1  0.76038065  -0.04302470  0.73654473  1
