# generated using pymatgen
data_CsKRbNaGe4(BrCl)6
_symmetry_space_group_name_H-M   'P 1'
_cell_length_a   10.91525467
_cell_length_b   5.70669945
_cell_length_c   11.20974064
_cell_angle_alpha   90.00000000
_cell_angle_beta   90.00000000
_cell_angle_gamma   90.00000000
_symmetry_Int_Tables_number   1
_chemical_formula_structural   CsKRbNaGe4(BrCl)6
_chemical_formula_sum   'Cs1 K1 Rb1 Na1 Ge4 Br6 Cl6'
_cell_volume   698.25561645
_cell_formula_units_Z   1
loop_
 _symmetry_equiv_pos_site_id
 _symmetry_equiv_pos_as_xyz
  1  'x, y, z'
loop_
 _atom_site_type_symbol
 _atom_site_label
 _atom_site_symmetry_multiplicity
 _atom_site_fract_x
 _atom_site_fract_y
 _atom_site_fract_z
 _atom_site_occupancy
  K  K0  1  0.02046116  0.02598603  -0.04114724  1
  Rb  Rb1  1  0.00448255  0.03215224  0.49138732  1
  Cs  Cs2  1  0.51026912  -0.02749202  -0.01329119  1
  Na  Na3  1  0.51229355  0.12256016  0.40860010  1
  Ge  Ge4  1  0.24188878  0.51109526  0.22474537  1
  Ge  Ge5  1  0.26366277  0.44399496  0.71764323  1
  Ge  Ge6  1  0.76966549  0.54976526  0.24829939  1
  Ge  Ge7  1  0.73819268  0.47777887  0.73907003  1
  Cl  Cl8  1  0.19811043  0.51737098  0.01427991  1
  Cl  Cl9  1  0.29894983  0.36014158  0.50767304  1
  Br  Br10  1  0.82205683  0.55251819  0.01929471  1
  Br  Br11  1  0.67821510  0.49419275  0.51324016  1
  Cl  Cl12  1  -0.01684307  0.53713847  0.31618888  1
  Br  Br13  1  0.02666676  0.51527075  0.69246763  1
  Br  Br14  1  0.48510858  0.47120053  0.20407810  1
  Cl  Cl15  1  0.52620701  0.47150143  0.80534300  1
  Br  Br16  1  0.25091436  -0.03441150  0.24773834  1
  Cl  Cl17  1  0.24807691  0.03546970  0.77194066  1
  Cl  Cl18  1  0.73947542  -0.02482986  0.27003687  1
  Br  Br19  1  0.77309022  0.02358748  0.75195803  1
