# generated using pymatgen
data_KNa3SnGe3I3(BrCl2)3
_symmetry_space_group_name_H-M   'P 1'
_cell_length_a   11.17862460
_cell_length_b   5.87560708
_cell_length_c   10.85183780
_cell_angle_alpha   90.00000000
_cell_angle_beta   90.00000000
_cell_angle_gamma   90.00000000
_symmetry_Int_Tables_number   1
_chemical_formula_structural   KNa3SnGe3I3(BrCl2)3
_chemical_formula_sum   'K1 Na3 Sn1 Ge3 I3 Br3 Cl6'
_cell_volume   712.76179228
_cell_formula_units_Z   1
loop_
 _symmetry_equiv_pos_site_id
 _symmetry_equiv_pos_as_xyz
  1  'x, y, z'
loop_
 _atom_site_type_symbol
 _atom_site_label
 _atom_site_symmetry_multiplicity
 _atom_site_fract_x
 _atom_site_fract_y
 _atom_site_fract_z
 _atom_site_occupancy
  Na  Na0  1  0.06392857  -0.03448431  -0.01379735  1
  K  K1  1  0.05006576  -0.02806892  0.51193275  1
  Na  Na2  1  0.50938088  -0.04455886  0.04288462  1
  Na  Na3  1  0.58100355  -0.00600102  0.55619794  1
  Ge  Ge4  1  0.21844715  0.45160550  0.23761911  1
  Sn  Sn5  1  0.23714018  0.47141050  0.76378728  1
  Ge  Ge6  1  0.69196146  0.57962610  0.23357368  1
  Ge  Ge7  1  0.74104760  0.61243610  0.75750852  1
  Cl  Cl8  1  0.11738487  0.45699257  -0.00841894  1
  I  I9  1  0.33252609  0.42296362  0.48152159  1
  I  I10  1  0.79576941  0.83684956  0.03502106  1
  Br  Br11  1  0.68558783  0.47871703  0.53087802  1
  Br  Br12  1  0.00451930  0.45427318  0.31693816  1
  Cl  Cl13  1  0.02615235  0.47588524  0.67002521  1
  Cl  Cl14  1  0.52053602  0.46342675  0.10878327  1
  Cl  Cl15  1  0.53832849  0.77357841  0.78792039  1
  I  I16  1  0.25119304  -0.04571981  0.20580276  1
  Br  Br17  1  0.22607783  -0.02892094  0.77469508  1
  Cl  Cl18  1  0.59865150  -0.07222409  0.29859735  1
  Cl  Cl19  1  0.81166133  -0.02862103  0.68707783  1
