# generated using pymatgen
data_KRbNa2Ge4(I3Br)3
_symmetry_space_group_name_H-M   'P 1'
_cell_length_a   11.61309333
_cell_length_b   5.98487522
_cell_length_c   11.45616696
_cell_angle_alpha   90.00000000
_cell_angle_beta   90.00000000
_cell_angle_gamma   90.00000000
_symmetry_Int_Tables_number   1
_chemical_formula_structural   KRbNa2Ge4(I3Br)3
_chemical_formula_sum   'Rb1 K1 Na2 Ge4 I9 Br3'
_cell_volume   796.23699265
_cell_formula_units_Z   1
loop_
 _symmetry_equiv_pos_site_id
 _symmetry_equiv_pos_as_xyz
  1  'x, y, z'
loop_
 _atom_site_type_symbol
 _atom_site_label
 _atom_site_symmetry_multiplicity
 _atom_site_fract_x
 _atom_site_fract_y
 _atom_site_fract_z
 _atom_site_occupancy
  Na  Na0  1  0.00261136  0.01377789  -0.07533252  1
  Na  Na1  1  -0.00262096  0.12412777  0.40488677  1
  Rb  Rb2  1  0.48140965  0.01227369  -0.00291665  1
  K  K3  1  0.51233639  -0.00292355  0.50761298  1
  Ge  Ge4  1  0.25039626  0.50662574  0.23698300  1
  Ge  Ge5  1  0.24175681  0.45876832  0.75166125  1
  Ge  Ge6  1  0.74128653  0.50532270  0.25046637  1
  Ge  Ge7  1  0.75665598  0.48566850  0.73295737  1
  Br  Br8  1  0.31053700  0.51355799  0.01627972  1
  I  I9  1  0.17778932  0.48486214  0.51451735  1
  I  I10  1  0.68137475  0.50976759  0.01284656  1
  Br  Br11  1  0.81771297  0.48499310  0.51540643  1
  I  I12  1  -0.00050366  0.47941514  0.19100019  1
  I  I13  1  -0.00048720  0.51055563  0.83280401  1
  I  I14  1  0.49928021  0.49448671  0.32623240  1
  I  I15  1  0.49895693  0.49849831  0.69979847  1
  I  I16  1  0.24740608  -0.00797778  0.26555568  1
  Br  Br17  1  0.23917390  0.02781674  0.77938808  1
  I  I18  1  0.75333685  -0.00681081  0.28085288  1
  I  I19  1  0.75452578  0.00186844  0.76468169  1
