# generated using pymatgen
data_CsK2NaSn2Ge2I6(BrCl)3
_symmetry_space_group_name_H-M   'P 1'
_cell_length_a   11.62939148
_cell_length_b   6.23585468
_cell_length_c   11.14386568
_cell_angle_alpha   90.00000000
_cell_angle_beta   90.00000000
_cell_angle_gamma   90.00000000
_symmetry_Int_Tables_number   1
_chemical_formula_structural   CsK2NaSn2Ge2I6(BrCl)3
_chemical_formula_sum   'Cs1 K2 Na1 Sn2 Ge2 I6 Br3 Cl3'
_cell_volume   808.14417238
_cell_formula_units_Z   1
loop_
 _symmetry_equiv_pos_site_id
 _symmetry_equiv_pos_as_xyz
  1  'x, y, z'
loop_
 _atom_site_type_symbol
 _atom_site_label
 _atom_site_symmetry_multiplicity
 _atom_site_fract_x
 _atom_site_fract_y
 _atom_site_fract_z
 _atom_site_occupancy
  K  K0  1  0.00065458  0.01068898  0.00200563  1
  Na  Na1  1  0.10839540  -0.00261470  0.47768743  1
  K  K2  1  0.51403636  0.05597763  -0.00319544  1
  Cs  Cs3  1  0.52897375  -0.00821104  0.49686913  1
  Ge  Ge4  1  0.26220119  0.44050568  0.22291130  1
  Ge  Ge5  1  0.24204203  0.47050788  0.74922468  1
  Sn  Sn6  1  0.73846223  0.50511849  0.24854437  1
  Sn  Sn7  1  0.72812635  0.50674056  0.75531632  1
  Cl  Cl8  1  0.30914730  0.42475825  0.00958627  1
  I  I9  1  0.16798640  0.49847504  0.50457561  1
  Cl  Cl10  1  0.65818805  0.51549036  -0.00832070  1
  Cl  Cl11  1  0.76424510  0.51624883  0.49212233  1
  I  I12  1  0.00780408  0.51279933  0.19316956  1
  I  I13  1  -0.00540955  0.50758300  0.82525110  1
  Br  Br14  1  0.48903465  0.48958439  0.29981963  1
  Br  Br15  1  0.47640706  0.49216118  0.69260451  1
  Br  Br16  1  0.25232779  0.02055974  0.25078247  1
  I  I17  1  0.23982500  0.00658705  0.74366428  1
  I  I18  1  0.74727189  0.00718413  0.22029321  1
  I  I19  1  0.74250624  0.00773970  0.77322956  1
