# generated using pymatgen
data_K3RbSnGe3(ICl)6
_symmetry_space_group_name_H-M   'P 1'
_cell_length_a   11.38986290
_cell_length_b   5.87216068
_cell_length_c   11.34977692
_cell_angle_alpha   90.00000000
_cell_angle_beta   90.00000000
_cell_angle_gamma   90.00000000
_symmetry_Int_Tables_number   1
_chemical_formula_structural   K3RbSnGe3(ICl)6
_chemical_formula_sum   'K3 Rb1 Sn1 Ge3 I6 Cl6'
_cell_volume   759.10832295
_cell_formula_units_Z   1
loop_
 _symmetry_equiv_pos_site_id
 _symmetry_equiv_pos_as_xyz
  1  'x, y, z'
loop_
 _atom_site_type_symbol
 _atom_site_label
 _atom_site_symmetry_multiplicity
 _atom_site_fract_x
 _atom_site_fract_y
 _atom_site_fract_z
 _atom_site_occupancy
  K  K0  1  0.01148309  -0.00276270  -0.00561163  1
  Rb  Rb1  1  0.01015874  0.00781417  0.53523300  1
  K  K2  1  0.53285728  -0.00043390  0.02256368  1
  K  K3  1  0.50431677  -0.00102481  0.44850842  1
  Ge  Ge4  1  0.27276749  0.49930645  0.23173482  1
  Sn  Sn5  1  0.22330213  0.51569961  0.77020201  1
  Ge  Ge6  1  0.74761879  0.53371224  0.25803144  1
  Ge  Ge7  1  0.76289553  0.50242559  0.78914415  1
  Cl  Cl8  1  0.15890850  0.50037031  -0.00372521  1
  I  I9  1  0.30832777  0.49727588  0.48473058  1
  Cl  Cl10  1  0.82085563  0.49938210  -0.00342913  1
  I  I11  1  0.68559193  0.49925691  0.49962660  1
  I  I12  1  -0.00986917  0.52006558  0.30952031  1
  Cl  Cl13  1  -0.00193768  0.50124377  0.69318575  1
  Cl  Cl14  1  0.48524077  0.49149162  0.18528318  1
  I  I15  1  0.50946110  0.50163777  0.83022509  1
  I  I16  1  0.26133162  -0.00081474  0.21509173  1
  Cl  Cl17  1  0.20487916  -0.02066316  0.76880967  1
  Cl  Cl18  1  0.72447529  -0.05361425  0.24452584  1
  I  I19  1  0.76984707  0.00207072  0.77081051  1
