# generated using pymatgen
data_KNa3SnGe3I3(Br2Cl)3
_symmetry_space_group_name_H-M   'P 1'
_cell_length_a   11.59757395
_cell_length_b   5.73317017
_cell_length_c   11.21328176
_cell_angle_alpha   90.00000000
_cell_angle_beta   90.00000000
_cell_angle_gamma   90.00000000
_symmetry_Int_Tables_number   1
_chemical_formula_structural   KNa3SnGe3I3(Br2Cl)3
_chemical_formula_sum   'K1 Na3 Sn1 Ge3 I3 Br6 Cl3'
_cell_volume   745.58080418
_cell_formula_units_Z   1
loop_
 _symmetry_equiv_pos_site_id
 _symmetry_equiv_pos_as_xyz
  1  'x, y, z'
loop_
 _atom_site_type_symbol
 _atom_site_label
 _atom_site_symmetry_multiplicity
 _atom_site_fract_x
 _atom_site_fract_y
 _atom_site_fract_z
 _atom_site_occupancy
  Na  Na0  1  -0.01133743  0.07426972  0.07643774  1
  K  K1  1  0.01210587  0.01204154  0.51335250  1
  Na  Na2  1  0.51985595  0.08765123  0.00724336  1
  Na  Na3  1  0.50003607  0.02973890  0.56147168  1
  Ge  Ge4  1  0.21909403  0.51080902  0.22982292  1
  Ge  Ge5  1  0.29656179  0.54884347  0.72177541  1
  Ge  Ge6  1  0.73849102  0.39371501  0.26737987  1
  Sn  Sn7  1  0.75715565  0.45656240  0.77529044  1
  I  I8  1  0.38840358  0.57747693  -0.04154289  1
  Br  Br9  1  0.16114496  0.51220713  0.45556398  1
  Cl  Cl10  1  0.72267499  0.37282788  0.04667853  1
  Br  Br11  1  0.80439186  0.48413508  0.53132355  1
  Cl  Cl12  1  0.02775806  0.55352821  0.14589843  1
  I  I13  1  -0.00429474  0.26857988  0.81003927  1
  I  I14  1  0.51211784  0.22525288  0.29374270  1
  Cl  Cl15  1  0.47958829  0.52994175  0.61918539  1
  Br  Br16  1  0.21150901  0.06030945  0.20353296  1
  Br  Br17  1  0.27661018  -0.00543470  0.69246412  1
  Br  Br18  1  0.83082659  -0.01144688  0.27848742  1
  Br  Br19  1  0.65339094  0.01325615  0.77310947  1
