# generated using pymatgen
data_CsNa3Sn3Ge(BrCl)6
_symmetry_space_group_name_H-M   'P 1'
_cell_length_a   11.01525650
_cell_length_b   5.77610122
_cell_length_c   11.32710552
_cell_angle_alpha   90.00000000
_cell_angle_beta   90.00000000
_cell_angle_gamma   90.00000000
_symmetry_Int_Tables_number   1
_chemical_formula_structural   CsNa3Sn3Ge(BrCl)6
_chemical_formula_sum   'Cs1 Na3 Sn3 Ge1 Br6 Cl6'
_cell_volume   720.68976806
_cell_formula_units_Z   1
loop_
 _symmetry_equiv_pos_site_id
 _symmetry_equiv_pos_as_xyz
  1  'x, y, z'
loop_
 _atom_site_type_symbol
 _atom_site_label
 _atom_site_symmetry_multiplicity
 _atom_site_fract_x
 _atom_site_fract_y
 _atom_site_fract_z
 _atom_site_occupancy
  Cs  Cs0  1  -0.03956571  0.00003542  0.01158334  1
  Na  Na1  1  -0.07042983  0.00043087  0.51574545  1
  Na  Na2  1  0.40469020  0.00010740  0.00233519  1
  Na  Na3  1  0.54002139  0.00020523  0.54081926  1
  Sn  Sn4  1  0.24871730  0.49987167  0.23561372  1
  Sn  Sn5  1  0.26542059  0.50001381  0.72210912  1
  Sn  Sn6  1  0.73834790  0.50014387  0.24908258  1
  Ge  Ge7  1  0.77711874  0.50004364  0.74302988  1
  Br  Br8  1  0.34242504  0.50009900  -0.01788095  1
  Br  Br9  1  0.16850943  0.49831478  0.48499159  1
  Cl  Cl10  1  0.70594370  0.49974084  0.01876134  1
  Cl  Cl11  1  0.83771077  0.50029092  0.53573718  1
  Cl  Cl12  1  -0.00391478  0.50000981  0.18809777  1
  Cl  Cl13  1  -0.01197752  0.50002792  0.81095162  1
  Cl  Cl14  1  0.49501665  0.49993960  0.30377677  1
  Br  Br15  1  0.50844621  0.50028462  0.63764379  1
  Cl  Cl16  1  0.24849877  0.00016105  0.19683352  1
  Br  Br17  1  0.29733885  0.00017965  0.74723967  1
  Br  Br18  1  0.74755650  0.00052774  0.31959953  1
  Br  Br19  1  0.75662598  0.00024335  0.72629906  1
