# generated using pymatgen
data_Cs2Na2Sn3GeI3(Br2Cl)3
_symmetry_space_group_name_H-M   'P 1'
_cell_length_a   12.36039723
_cell_length_b   5.86184099
_cell_length_c   11.49940021
_cell_angle_alpha   90.00000000
_cell_angle_beta   90.00000000
_cell_angle_gamma   90.00000000
_symmetry_Int_Tables_number   1
_chemical_formula_structural   Cs2Na2Sn3GeI3(Br2Cl)3
_chemical_formula_sum   'Cs2 Na2 Sn3 Ge1 I3 Br6 Cl3'
_cell_volume   833.18539828
_cell_formula_units_Z   1
loop_
 _symmetry_equiv_pos_site_id
 _symmetry_equiv_pos_as_xyz
  1  'x, y, z'
loop_
 _atom_site_type_symbol
 _atom_site_label
 _atom_site_symmetry_multiplicity
 _atom_site_fract_x
 _atom_site_fract_y
 _atom_site_fract_z
 _atom_site_occupancy
  Cs  Cs0  1  0.06632870  -0.02595012  0.04134233  1
  Cs  Cs1  1  -0.00031460  -0.05751202  0.47719025  1
  Na  Na2  1  0.49507786  -0.09104684  -0.17003880  1
  Na  Na3  1  0.62540304  0.13066433  0.45260243  1
  Sn  Sn4  1  0.24527116  0.49059321  0.27271594  1
  Sn  Sn5  1  0.23860828  0.44193158  0.76599664  1
  Ge  Ge6  1  0.72269293  0.60040766  0.20646975  1
  Sn  Sn7  1  0.74929983  0.44641586  0.73715940  1
  Br  Br8  1  0.28698737  0.45769125  0.01817310  1
  Br  Br9  1  0.17760131  0.44643302  0.52125730  1
  Br  Br10  1  0.64116621  0.62756238  0.00258756  1
  Cl  Cl11  1  0.80285344  0.41945365  0.51541412  1
  Cl  Cl12  1  0.03543833  0.48036664  0.22921869  1
  I  I13  1  -0.01084972  0.47203515  0.82472950  1
  I  I14  1  0.53355549  0.62361742  0.34000439  1
  I  I15  1  0.49269438  0.40448407  0.69347694  1
  Cl  Cl16  1  0.23296950  -0.05011399  0.28382877  1
  Br  Br17  1  0.25726909  -0.06461194  0.77313672  1
  Br  Br18  1  0.77476442  0.02180225  0.23873670  1
  Br  Br19  1  0.71511773  -0.07151646  0.69445724  1
