# generated using pymatgen
data_K2Rb2Ge4(I3Br)3
_symmetry_space_group_name_H-M   'P 1'
_cell_length_a   11.67210689
_cell_length_b   5.93166691
_cell_length_c   11.70116670
_cell_angle_alpha   90.00000000
_cell_angle_beta   90.00000000
_cell_angle_gamma   90.00000000
_symmetry_Int_Tables_number   1
_chemical_formula_structural   K2Rb2Ge4(I3Br)3
_chemical_formula_sum   'K2 Rb2 Ge4 I9 Br3'
_cell_volume   810.13086414
_cell_formula_units_Z   1
loop_
 _symmetry_equiv_pos_site_id
 _symmetry_equiv_pos_as_xyz
  1  'x, y, z'
loop_
 _atom_site_type_symbol
 _atom_site_label
 _atom_site_symmetry_multiplicity
 _atom_site_fract_x
 _atom_site_fract_y
 _atom_site_fract_z
 _atom_site_occupancy
  K  K0  1  0.00656146  0.00579410  0.05108200  1
  K  K1  1  -0.05191211  -0.00638920  0.50091870  1
  Rb  Rb2  1  0.47649166  0.00962532  -0.01512069  1
  Rb  Rb3  1  0.50218297  -0.00165226  0.50689523  1
  Ge  Ge4  1  0.25066917  0.46112873  0.24711693  1
  Ge  Ge5  1  0.23639761  0.49450416  0.73751311  1
  Ge  Ge6  1  0.74901058  0.54038729  0.24424373  1
  Ge  Ge7  1  0.72510767  0.50692375  0.75970796  1
  I  I8  1  0.19466067  0.50927102  -0.00630128  1
  I  I9  1  0.31465014  0.50027642  0.49247522  1
  I  I10  1  0.81876252  0.50337677  0.00110029  1
  I  I11  1  0.70003765  0.49565008  0.50071597  1
  I  I12  1  0.00449386  0.49003121  0.30863471  1
  I  I13  1  0.00189960  0.49537137  0.68367867  1
  I  I14  1  0.50472731  0.51357919  0.18454402  1
  Br  Br15  1  0.50744725  0.50679267  0.80785867  1
  Br  Br16  1  0.25286520  0.02675050  0.23740780  1
  I  I17  1  0.26387180  0.00208276  0.74134164  1
  Br  Br18  1  0.76143574  -0.02303177  0.25210394  1
  I  I19  1  0.74094549  0.00175311  0.75058977  1
