# generated using pymatgen
data_KRbNa2Ge4(I3Br)3
_symmetry_space_group_name_H-M   'P 1'
_cell_length_a   11.74065658
_cell_length_b   5.96089936
_cell_length_c   11.41049724
_cell_angle_alpha   90.00000000
_cell_angle_beta   90.00000000
_cell_angle_gamma   90.00000000
_symmetry_Int_Tables_number   1
_chemical_formula_structural   KRbNa2Ge4(I3Br)3
_chemical_formula_sum   'Rb1 K1 Na2 Ge4 I9 Br3'
_cell_volume   798.56219251
_cell_formula_units_Z   1
loop_
 _symmetry_equiv_pos_site_id
 _symmetry_equiv_pos_as_xyz
  1  'x, y, z'
loop_
 _atom_site_type_symbol
 _atom_site_label
 _atom_site_symmetry_multiplicity
 _atom_site_fract_x
 _atom_site_fract_y
 _atom_site_fract_z
 _atom_site_occupancy
  Rb  Rb0  1  0.01467662  0.00231629  -0.03510123  1
  Na  Na1  1  -0.09239377  0.11110414  0.48976467  1
  Na  Na2  1  0.40438103  -0.11812340  -0.00093860  1
  K  K3  1  0.51515461  -0.03687976  0.52160902  1
  Ge  Ge4  1  0.26836617  0.46691811  0.24579248  1
  Ge  Ge5  1  0.24712892  0.44982397  0.75595966  1
  Ge  Ge6  1  0.76455941  0.50086402  0.24646906  1
  Ge  Ge7  1  0.74345699  0.49244967  0.73684186  1
  Br  Br8  1  0.19842809  0.50823067  -0.01849371  1
  I  I9  1  0.33020843  0.46585114  0.48723898  1
  I  I10  1  0.82191012  0.49820764  0.00445301  1
  Br  Br11  1  0.69364000  0.46621340  0.50995144  1
  I  I12  1  -0.00188629  0.50148717  0.31908073  1
  I  I13  1  0.00762771  0.46047514  0.68905044  1
  I  I14  1  0.49826614  0.47026439  0.16394872  1
  I  I15  1  0.50497927  0.53171138  0.80007729  1
  I  I16  1  0.24313964  -0.01519590  0.22118113  1
  Br  Br17  1  0.27023358  0.01668664  0.77194844  1
  I  I18  1  0.73859184  -0.01434686  0.27525732  1
  I  I19  1  0.76653867  -0.02040037  0.73063577  1
