# generated using pymatgen
data_CsKRbNaSnGe3(IBr)6
_symmetry_space_group_name_H-M   'P 1'
_cell_length_a   11.49147753
_cell_length_b   6.19200712
_cell_length_c   11.66705684
_cell_angle_alpha   90.00000000
_cell_angle_beta   90.00000000
_cell_angle_gamma   90.00000000
_symmetry_Int_Tables_number   1
_chemical_formula_structural   CsKRbNaSnGe3(IBr)6
_chemical_formula_sum   'Cs1 K1 Rb1 Na1 Sn1 Ge3 I6 Br6'
_cell_volume   830.17305479
_cell_formula_units_Z   1
loop_
 _symmetry_equiv_pos_site_id
 _symmetry_equiv_pos_as_xyz
  1  'x, y, z'
loop_
 _atom_site_type_symbol
 _atom_site_label
 _atom_site_symmetry_multiplicity
 _atom_site_fract_x
 _atom_site_fract_y
 _atom_site_fract_z
 _atom_site_occupancy
  K  K0  1  0.01823940  -0.01761116  -0.00894220  1
  Cs  Cs1  1  0.02433671  0.02429213  0.49478771  1
  Rb  Rb2  1  0.47417292  -0.01586194  0.03290782  1
  Na  Na3  1  0.59814110  -0.14662863  0.49266738  1
  Ge  Ge4  1  0.26717333  0.55072393  0.24186618  1
  Ge  Ge5  1  0.25247946  0.52914140  0.73414526  1
  Ge  Ge6  1  0.76827913  0.47529542  0.23110343  1
  Sn  Sn7  1  0.76843416  0.49407081  0.75183973  1
  Br  Br8  1  0.30368347  0.48711641  0.02612666  1
  Br  Br9  1  0.19204413  0.52633923  0.52252679  1
  I  I10  1  0.66467436  0.48958173  -0.00307324  1
  I  I11  1  0.81927897  0.52157494  0.48265031  1
  Br  Br12  1  -0.01800074  0.46148687  0.17119719  1
  Br  Br13  1  0.01037491  0.49206103  0.82585535  1
  Br  Br14  1  0.48458713  0.59617927  0.29402309  1
  I  I15  1  0.49857135  0.49693243  0.66553190  1
  Br  Br16  1  0.22034822  -0.04211551  0.22337383  1
  I  I17  1  0.24989078  -0.01030093  0.76951509  1
  I  I18  1  0.74036826  0.01488179  0.25080508  1
  I  I19  1  0.75897966  -0.00392950  0.73197545  1
