# generated using pymatgen
data_Cs3RbSn2Ge2I3(BrCl2)3
_symmetry_space_group_name_H-M   'P 1'
_cell_length_a   11.48546103
_cell_length_b   5.81723804
_cell_length_c   11.74193972
_cell_angle_alpha   90.00000000
_cell_angle_beta   90.00000000
_cell_angle_gamma   90.00000000
_symmetry_Int_Tables_number   1
_chemical_formula_structural   Cs3RbSn2Ge2I3(BrCl2)3
_chemical_formula_sum   'Cs3 Rb1 Sn2 Ge2 I3 Br3 Cl6'
_cell_volume   784.52197782
_cell_formula_units_Z   1
loop_
 _symmetry_equiv_pos_site_id
 _symmetry_equiv_pos_as_xyz
  1  'x, y, z'
loop_
 _atom_site_type_symbol
 _atom_site_label
 _atom_site_symmetry_multiplicity
 _atom_site_fract_x
 _atom_site_fract_y
 _atom_site_fract_z
 _atom_site_occupancy
  Cs  Cs0  1  -0.01879662  0.00441043  -0.01803642  1
  Cs  Cs1  1  0.00232328  0.00008385  0.47145443  1
  Cs  Cs2  1  0.48273614  0.00711097  0.00388419  1
  Rb  Rb3  1  0.47890569  -0.00183514  0.50516812  1
  Ge  Ge4  1  0.27274443  0.53824425  0.24712292  1
  Ge  Ge5  1  0.27152647  0.53086091  0.73994293  1
  Sn  Sn6  1  0.76601088  0.51327629  0.23605238  1
  Sn  Sn7  1  0.73729707  0.50611335  0.75940585  1
  I  I8  1  0.21394025  0.50513474  0.00902289  1
  Br  Br9  1  0.29861741  0.49565683  0.51192265  1
  Cl  Cl10  1  0.79320896  0.50414880  -0.00024216  1
  I  I11  1  0.69109206  0.50048317  0.49801108  1
  Cl  Cl12  1  -0.00920604  0.50106418  0.28449054  1
  I  I13  1  0.00299272  0.49622450  0.70958830  1
  Cl  Cl14  1  0.48095501  0.51183562  0.20968250  1
  Cl  Cl15  1  0.48660003  0.50593060  0.79894839  1
  Cl  Cl16  1  0.26997059  -0.04787804  0.26196713  1
  Br  Br17  1  0.26675353  -0.02215836  0.74221866  1
  Cl  Cl18  1  0.77052426  -0.01779890  0.23106471  1
  Br  Br19  1  0.72329084  0.00501388  0.76431511  1
