# generated using pymatgen
data_KNaSnGe(IBr)3
_symmetry_space_group_name_H-M   'P 1'
_cell_length_a   11.31295305
_cell_length_b   5.84376801
_cell_length_c   12.17880241
_cell_angle_alpha   90.00000000
_cell_angle_beta   90.00000000
_cell_angle_gamma   90.00000000
_symmetry_Int_Tables_number   1
_chemical_formula_structural   KNaSnGe(IBr)3
_chemical_formula_sum   'K2 Na2 Sn2 Ge2 I6 Br6'
_cell_volume   805.14395314
_cell_formula_units_Z   2
loop_
 _symmetry_equiv_pos_site_id
 _symmetry_equiv_pos_as_xyz
  1  'x, y, z'
loop_
 _atom_site_type_symbol
 _atom_site_label
 _atom_site_symmetry_multiplicity
 _atom_site_fract_x
 _atom_site_fract_y
 _atom_site_fract_z
 _atom_site_occupancy
  Na  Na0  1  -0.03791698  0.05381954  0.02979026  1
  K  K1  1  -0.04676690  -0.01006998  0.49232529  1
  Na  Na2  1  0.35985154  -0.08867038  0.02725445  1
  K  K3  1  0.50972755  -0.01841711  0.44941664  1
  Ge  Ge4  1  0.23787141  0.49903165  0.28671189  1
  Sn  Sn5  1  0.22553055  0.47295388  0.76521222  1
  Ge  Ge6  1  0.74451675  0.56013373  0.21708030  1
  Sn  Sn7  1  0.73936991  0.51682963  0.73108981  1
  I  I8  1  0.20076450  0.42629917  0.05041387  1
  I  I9  1  0.32852766  0.47796796  0.52910573  1
  I  I10  1  0.84183122  0.54535633  -0.02849889  1
  I  I11  1  0.70144293  0.49307482  0.45570634  1
  Br  Br12  1  0.01891600  0.48909764  0.32993368  1
  Br  Br13  1  -0.01431091  0.48627138  0.65064344  1
  Br  Br14  1  0.52255571  0.59973977  0.18478218  1
  I  I15  1  0.48382664  0.54372141  0.85051403  1
  Br  Br16  1  0.25680701  -0.05014541  0.27628426  1
  I  I17  1  0.15279173  -0.03541682  0.82755455  1
  Br  Br18  1  0.79369958  -0.00396825  0.22765801  1
  Br  Br19  1  0.71978333  0.00244631  0.68969920  1
