# generated using pymatgen
data_Cs2K2SnGe3I6(BrCl)3
_symmetry_space_group_name_H-M   'P 1'
_cell_length_a   11.50752055
_cell_length_b   5.97698682
_cell_length_c   11.57305127
_cell_angle_alpha   90.00000000
_cell_angle_beta   90.00000000
_cell_angle_gamma   90.00000000
_symmetry_Int_Tables_number   1
_chemical_formula_structural   Cs2K2SnGe3I6(BrCl)3
_chemical_formula_sum   'Cs2 K2 Sn1 Ge3 I6 Br3 Cl3'
_cell_volume   795.99792300
_cell_formula_units_Z   1
loop_
 _symmetry_equiv_pos_site_id
 _symmetry_equiv_pos_as_xyz
  1  'x, y, z'
loop_
 _atom_site_type_symbol
 _atom_site_label
 _atom_site_symmetry_multiplicity
 _atom_site_fract_x
 _atom_site_fract_y
 _atom_site_fract_z
 _atom_site_occupancy
  Cs  Cs0  1  0.02885096  0.00819025  0.03254177  1
  Cs  Cs1  1  -0.01703379  0.00934973  0.51080440  1
  K  K2  1  0.52676586  -0.00407592  0.01388457  1
  K  K3  1  0.48263480  0.00284817  0.52464616  1
  Ge  Ge4  1  0.26908367  0.53306365  0.26342107  1
  Sn  Sn5  1  0.23154900  0.51071072  0.76628161  1
  Ge  Ge6  1  0.72498641  0.49763837  0.23832994  1
  Ge  Ge7  1  0.76078223  0.50678568  0.74221013  1
  Cl  Cl8  1  0.19333831  0.50864851  -0.01006044  1
  Br  Br9  1  0.31265988  0.50751646  0.48357963  1
  I  I10  1  0.81273221  0.50678706  -0.01218191  1
  I  I11  1  0.67454293  0.50204608  0.48760697  1
  I  I12  1  0.02276945  0.51156855  0.28941456  1
  Cl  Cl13  1  -0.02941808  0.50812227  0.68653807  1
  Cl  Cl14  1  0.52376823  0.49154793  0.17554680  1
  I  I15  1  0.48925556  0.50296615  0.81731074  1
  Br  Br16  1  0.29134922  -0.03617731  0.24888850  1
  Br  Br17  1  0.23096451  0.00749642  0.74606492  1
  I  I18  1  0.74820772  0.00287189  0.24373973  1
  I  I19  1  0.73279405  0.00342330  0.74325464  1
