# generated using pymatgen
data_Cs4SnGe3I3(BrCl2)3
_symmetry_space_group_name_H-M   'P 1'
_cell_length_a   11.29088590
_cell_length_b   6.11584664
_cell_length_c   11.37500551
_cell_angle_alpha   90.00000000
_cell_angle_beta   90.00000000
_cell_angle_gamma   90.00000000
_symmetry_Int_Tables_number   1
_chemical_formula_structural   Cs4SnGe3I3(BrCl2)3
_chemical_formula_sum   'Cs4 Sn1 Ge3 I3 Br3 Cl6'
_cell_volume   785.48196979
_cell_formula_units_Z   1
loop_
 _symmetry_equiv_pos_site_id
 _symmetry_equiv_pos_as_xyz
  1  'x, y, z'
loop_
 _atom_site_type_symbol
 _atom_site_label
 _atom_site_symmetry_multiplicity
 _atom_site_fract_x
 _atom_site_fract_y
 _atom_site_fract_z
 _atom_site_occupancy
  Cs  Cs0  1  -0.01437026  -0.00555794  0.00792162  1
  Cs  Cs1  1  -0.01163955  0.01158206  0.50620744  1
  Cs  Cs2  1  0.47751767  0.01198166  -0.00878139  1
  Cs  Cs3  1  0.49172644  0.00453463  0.51914524  1
  Ge  Ge4  1  0.27604605  0.51386027  0.26100044  1
  Ge  Ge5  1  0.23150435  0.54579707  0.72999617  1
  Sn  Sn6  1  0.75492003  0.50623548  0.24561924  1
  Ge  Ge7  1  0.73181534  0.53777981  0.75845137  1
  I  I8  1  0.20863642  0.49373964  -0.02251951  1
  Cl  Cl9  1  0.31912349  0.50569770  0.47282271  1
  Cl  Cl10  1  0.79860483  0.49867525  0.01354490  1
  Br  Br11  1  0.70955874  0.50657779  0.52661825  1
  Br  Br12  1  -0.00158151  0.50691167  0.29555097  1
  Cl  Cl13  1  0.02355185  0.51923311  0.68914906  1
  Cl  Cl14  1  0.48365962  0.51139548  0.19532875  1
  Cl  Cl15  1  0.52249173  0.51755695  0.79581640  1
  I  I16  1  0.24950707  -0.00025256  0.25541720  1
  Cl  Cl17  1  0.24028197  -0.05759274  0.73135244  1
  I  I18  1  0.72648826  0.00619565  0.25212852  1
  Br  Br19  1  0.74467868  -0.03535684  0.76292980  1
