# generated using pymatgen
data_Rb2Na2SnGe3I6(BrCl)3
_symmetry_space_group_name_H-M   'P 1'
_cell_length_a   11.13629434
_cell_length_b   5.92819165
_cell_length_c   11.86367013
_cell_angle_alpha   90.00000000
_cell_angle_beta   90.00000000
_cell_angle_gamma   90.00000000
_symmetry_Int_Tables_number   1
_chemical_formula_structural   Rb2Na2SnGe3I6(BrCl)3
_chemical_formula_sum   'Rb2 Na2 Sn1 Ge3 I6 Br3 Cl3'
_cell_volume   783.21680876
_cell_formula_units_Z   1
loop_
 _symmetry_equiv_pos_site_id
 _symmetry_equiv_pos_as_xyz
  1  'x, y, z'
loop_
 _atom_site_type_symbol
 _atom_site_label
 _atom_site_symmetry_multiplicity
 _atom_site_fract_x
 _atom_site_fract_y
 _atom_site_fract_z
 _atom_site_occupancy
  Na  Na0  1  -0.02300556  -0.18340180  -0.01344887  1
  Rb  Rb1  1  0.02634940  -0.00576555  0.46817205  1
  Rb  Rb2  1  0.51548159  0.01075932  -0.01362001  1
  Na  Na3  1  0.52949825  0.12757486  0.47777793  1
  Ge  Ge4  1  0.23169563  0.50193390  0.19219030  1
  Sn  Sn5  1  0.27648313  0.49733282  0.71496260  1
  Ge  Ge6  1  0.77082676  0.47396557  0.26162527  1
  Ge  Ge7  1  0.73578434  0.52111038  0.77706359  1
  Br  Br8  1  0.19063528  0.50444224  -0.03340560  1
  I  I9  1  0.29433379  0.46496774  0.45383201  1
  Br  Br10  1  0.83212456  0.39913866  0.05189339  1
  I  I11  1  0.66214572  0.60466817  0.54998368  1
  Cl  Cl12  1  -0.02533786  0.49321447  0.32807779  1
  I  I13  1  0.00770397  0.48879657  0.67885777  1
  I  I14  1  0.48241558  0.51283681  0.17729230  1
  Cl  Cl15  1  0.53018428  0.50965243  0.85091405  1
  I  I16  1  0.18206051  -0.01142520  0.18504809  1
  I  I17  1  0.36227453  0.00070516  0.69670413  1
  Br  Br18  1  0.73406878  0.05247256  0.31129549  1
  Cl  Cl19  1  0.77729655  -0.09293881  0.83495607  1
