# generated using pymatgen
data_CsKNa2Sn3Ge(ICl)6
_symmetry_space_group_name_H-M   'P 1'
_cell_length_a   11.46166756
_cell_length_b   6.04853958
_cell_length_c   11.40167173
_cell_angle_alpha   90.00000000
_cell_angle_beta   90.00000000
_cell_angle_gamma   90.00000000
_symmetry_Int_Tables_number   1
_chemical_formula_structural   CsKNa2Sn3Ge(ICl)6
_chemical_formula_sum   'Cs1 K1 Na2 Sn3 Ge1 I6 Cl6'
_cell_volume   790.43628349
_cell_formula_units_Z   1
loop_
 _symmetry_equiv_pos_site_id
 _symmetry_equiv_pos_as_xyz
  1  'x, y, z'
loop_
 _atom_site_type_symbol
 _atom_site_label
 _atom_site_symmetry_multiplicity
 _atom_site_fract_x
 _atom_site_fract_y
 _atom_site_fract_z
 _atom_site_occupancy
  K  K0  1  0.03043730  -0.00000292  0.01378117  1
  Cs  Cs1  1  -0.08417333  -0.00000386  0.50454165  1
  Na  Na2  1  0.52479458  0.00000590  -0.01444636  1
  Na  Na3  1  0.44839938  -0.00001329  0.39108337  1
  Sn  Sn4  1  0.25485422  0.49992743  0.22441399  1
  Sn  Sn5  1  0.28033387  0.49999554  0.76369438  1
  Ge  Ge6  1  0.72206600  0.49999748  0.22051007  1
  Sn  Sn7  1  0.73854809  0.49999935  0.75042523  1
  Cl  Cl8  1  0.16832274  0.49998350  -0.00124578  1
  I  I9  1  0.36317213  0.50000131  0.48937764  1
  Cl  Cl10  1  0.80546023  0.49999999  0.02931834  1
  Cl  Cl11  1  0.71361959  0.50000090  0.51883356  1
  I  I12  1  0.00352567  0.49998631  0.30458528  1
  I  I13  1  0.01149725  0.49999880  0.69706168  1
  Cl  Cl14  1  0.51485293  0.50000580  0.15659007  1
  Cl  Cl15  1  0.50927426  0.49999494  0.84524891  1
  Cl  Cl16  1  0.27214481  0.00013569  0.22173849  1
  I  I17  1  0.29116549  -0.00000604  0.81968052  1
  I  I18  1  0.69398689  0.00000134  0.24137984  1
  I  I19  1  0.76025884  -0.00000085  0.81976258  1
