# generated using pymatgen
data_RbNa3Sn4I3(Br2Cl)3
_symmetry_space_group_name_H-M   'P 1'
_cell_length_a   12.12235272
_cell_length_b   5.83264356
_cell_length_c   11.33274204
_cell_angle_alpha   90.00000000
_cell_angle_beta   90.00000000
_cell_angle_gamma   90.00000000
_symmetry_Int_Tables_number   1
_chemical_formula_structural   RbNa3Sn4I3(Br2Cl)3
_chemical_formula_sum   'Rb1 Na3 Sn4 I3 Br6 Cl3'
_cell_volume   801.28563387
_cell_formula_units_Z   1
loop_
 _symmetry_equiv_pos_site_id
 _symmetry_equiv_pos_as_xyz
  1  'x, y, z'
loop_
 _atom_site_type_symbol
 _atom_site_label
 _atom_site_symmetry_multiplicity
 _atom_site_fract_x
 _atom_site_fract_y
 _atom_site_fract_z
 _atom_site_occupancy
  Na  Na0  1  -0.11702288  0.10622093  0.01841174  1
  Na  Na1  1  0.02133219  -0.07054488  0.63771659  1
  Rb  Rb2  1  0.48765507  -0.01248743  0.06178172  1
  Na  Na3  1  0.38146390  -0.10592096  0.47427738  1
  Sn  Sn4  1  0.24803157  0.49252458  0.23888531  1
  Sn  Sn5  1  0.27828737  0.48423533  0.75504431  1
  Sn  Sn6  1  0.76503944  0.54446589  0.25779472  1
  Sn  Sn7  1  0.76279189  0.50290160  0.72245588  1
  Cl  Cl8  1  0.33425501  0.47893468  -0.00932485  1
  Br  Br9  1  0.20160186  0.52748772  0.48988437  1
  I  I10  1  0.67613957  0.48053132  -0.01155900  1
  Br  Br11  1  0.86782330  0.61420672  0.49187414  1
  Br  Br12  1  -0.02677514  0.51554833  0.15752948  1
  I  I13  1  0.02014612  0.44629601  0.80576519  1
  Br  Br14  1  0.47395392  0.54397586  0.28858223  1
  I  I15  1  0.51640900  0.51008863  0.63941362  1
  Cl  Cl16  1  0.27509034  0.03250284  0.25883418  1
  Br  Br17  1  0.26494020  -0.00916276  0.71394885  1
  Cl  Cl18  1  0.74989873  -0.00594794  0.21341539  1
  Br  Br19  1  0.79893947  -0.02134047  0.77079482  1
