# generated using pymatgen
data_Cs2KNaSnGe3(ICl3)3
_symmetry_space_group_name_H-M   'P 1'
_cell_length_a   11.26536249
_cell_length_b   5.70718684
_cell_length_c   11.30113674
_cell_angle_alpha   90.00000000
_cell_angle_beta   90.00000000
_cell_angle_gamma   90.00000000
_symmetry_Int_Tables_number   1
_chemical_formula_structural   Cs2KNaSnGe3(ICl3)3
_chemical_formula_sum   'Cs2 K1 Na1 Sn1 Ge3 I3 Cl9'
_cell_volume   726.58995820
_cell_formula_units_Z   1
loop_
 _symmetry_equiv_pos_site_id
 _symmetry_equiv_pos_as_xyz
  1  'x, y, z'
loop_
 _atom_site_type_symbol
 _atom_site_label
 _atom_site_symmetry_multiplicity
 _atom_site_fract_x
 _atom_site_fract_y
 _atom_site_fract_z
 _atom_site_occupancy
  K  K0  1  -0.02540371  -0.01418188  -0.01355368  1
  Na  Na1  1  -0.01936480  0.00091246  0.43453008  1
  Cs  Cs2  1  0.49696755  0.02521260  -0.00534254  1
  Cs  Cs3  1  0.46757278  0.00961186  0.49749018  1
  Ge  Ge4  1  0.27603214  0.52885089  0.21461390  1
  Ge  Ge5  1  0.24232522  0.49938809  0.70501095  1
  Ge  Ge6  1  0.74520184  0.53240089  0.25426194  1
  Sn  Sn7  1  0.75844380  0.50130258  0.77682283  1
  Cl  Cl8  1  0.30282514  0.52713488  0.00280835  1
  Cl  Cl9  1  0.24295110  0.49542274  0.49230886  1
  Cl  Cl10  1  0.69290733  0.52862029  0.03509527  1
  I  I11  1  0.85595288  0.49620958  0.51997616  1
  I  I12  1  0.02527982  0.45992939  0.20685972  1
  Cl  Cl13  1  -0.02489805  0.49282600  0.85296619  1
  Cl  Cl14  1  0.53417734  0.52024765  0.31040816  1
  Cl  Cl15  1  0.46220836  0.50054751  0.71516710  1
  Cl  Cl16  1  0.27123180  -0.04842681  0.23271382  1
  I  I17  1  0.16677898  -0.00296599  0.70296922  1
  Cl  Cl18  1  0.77265175  -0.04047689  0.26565425  1
  Cl  Cl19  1  0.74716969  0.00866676  0.79114721  1
