# generated using pymatgen
data_KRb2NaSn3Ge(BrCl3)3
_symmetry_space_group_name_H-M   'P 1'
_cell_length_a   11.05989176
_cell_length_b   5.67561018
_cell_length_c   11.11289961
_cell_angle_alpha   90.00000000
_cell_angle_beta   90.00000000
_cell_angle_gamma   90.00000000
_symmetry_Int_Tables_number   1
_chemical_formula_structural   KRb2NaSn3Ge(BrCl3)3
_chemical_formula_sum   'K1 Rb2 Na1 Sn3 Ge1 Br3 Cl9'
_cell_volume   697.57487038
_cell_formula_units_Z   1
loop_
 _symmetry_equiv_pos_site_id
 _symmetry_equiv_pos_as_xyz
  1  'x, y, z'
loop_
 _atom_site_type_symbol
 _atom_site_label
 _atom_site_symmetry_multiplicity
 _atom_site_fract_x
 _atom_site_fract_y
 _atom_site_fract_z
 _atom_site_occupancy
  K  K0  1  -0.02333169  -0.01514908  -0.04463747  1
  Rb  Rb1  1  -0.01848475  0.00112624  0.49520665  1
  Na  Na2  1  0.39397255  0.12848702  0.00483137  1
  Rb  Rb3  1  0.52475952  0.00769723  0.43590089  1
  Ge  Ge4  1  0.25075549  0.50626859  0.27360176  1
  Sn  Sn5  1  0.24688682  0.51184007  0.75632943  1
  Sn  Sn6  1  0.75770508  0.47328710  0.22713644  1
  Sn  Sn7  1  0.74891446  0.49562512  0.73578880  1
  Br  Br8  1  0.16921822  0.47298939  -0.00098691  1
  Cl  Cl9  1  0.33185198  0.51437195  0.48157147  1
  Cl  Cl10  1  0.82362617  0.48457739  -0.02819229  1
  Cl  Cl11  1  0.70276678  0.49683531  0.47173438  1
  Cl  Cl12  1  0.03819639  0.50226344  0.33182969  1
  Cl  Cl13  1  -0.00935390  0.50472451  0.67944775  1
  Cl  Cl14  1  0.52101550  0.40332490  0.19290734  1
  Br  Br15  1  0.48827838  0.52725847  0.84894840  1
  Br  Br16  1  0.26443641  -0.02755480  0.24271098  1
  Cl  Cl17  1  0.23951034  -0.00011908  0.78540922  1
  Cl  Cl18  1  0.79232390  0.00270361  0.24510528  1
  Cl  Cl19  1  0.76985351  -0.00253011  0.72376088  1
