# generated using pymatgen
data_KRb2NaSn2Ge2I3(Br2Cl)3
_symmetry_space_group_name_H-M   'P 1'
_cell_length_a   11.46971815
_cell_length_b   5.91823255
_cell_length_c   11.63755958
_cell_angle_alpha   90.00000000
_cell_angle_beta   90.00000000
_cell_angle_gamma   90.00000000
_symmetry_Int_Tables_number   1
_chemical_formula_structural   KRb2NaSn2Ge2I3(Br2Cl)3
_chemical_formula_sum   'K1 Rb2 Na1 Sn2 Ge2 I3 Br6 Cl3'
_cell_volume   789.96288948
_cell_formula_units_Z   1
loop_
 _symmetry_equiv_pos_site_id
 _symmetry_equiv_pos_as_xyz
  1  'x, y, z'
loop_
 _atom_site_type_symbol
 _atom_site_label
 _atom_site_symmetry_multiplicity
 _atom_site_fract_x
 _atom_site_fract_y
 _atom_site_fract_z
 _atom_site_occupancy
  K  K0  1  0.01616030  -0.00575979  0.05533458  1
  Rb  Rb1  1  0.06968510  -0.00980211  0.50305173  1
  Rb  Rb2  1  0.48577909  -0.00253706  -0.05095685  1
  Na  Na3  1  0.59395713  0.02009782  0.48802694  1
  Ge  Ge4  1  0.23091676  0.53077978  0.25497734  1
  Sn  Sn5  1  0.23683009  0.49040574  0.75723071  1
  Sn  Sn6  1  0.74033641  0.50354633  0.24273495  1
  Ge  Ge7  1  0.74171807  0.47224426  0.73547631  1
  Br  Br8  1  0.17762549  0.49247060  0.03819679  1
  Cl  Cl9  1  0.25921624  0.48752385  0.53222707  1
  I  I10  1  0.82290466  0.49140863  -0.01746833  1
  I  I11  1  0.62719773  0.51980772  0.49622487  1
  Br  Br12  1  0.00335998  0.49056523  0.31508029  1
  Br  Br13  1  -0.04815252  0.47896921  0.66170478  1
  I  I14  1  0.48930587  0.49681473  0.15878966  1
  Cl  Cl15  1  0.46272876  0.49758214  0.80185335  1
  Cl  Cl16  1  0.22746520  -0.06047671  0.25610020  1
  Br  Br17  1  0.21406672  -0.00823590  0.78425556  1
  Br  Br18  1  0.74997039  0.00731509  0.26778055  1
  Br  Br19  1  0.71266394  0.03368838  0.72691034  1
