# generated using pymatgen
data_Rb2Na2SnGe3I6(BrCl)3
_symmetry_space_group_name_H-M   'P 1'
_cell_length_a   11.49758518
_cell_length_b   5.89696689
_cell_length_c   11.45800133
_cell_angle_alpha   90.00000000
_cell_angle_beta   90.00000000
_cell_angle_gamma   90.00000000
_symmetry_Int_Tables_number   1
_chemical_formula_structural   Rb2Na2SnGe3I6(BrCl)3
_chemical_formula_sum   'Rb2 Na2 Sn1 Ge3 I6 Br3 Cl3'
_cell_volume   776.86256242
_cell_formula_units_Z   1
loop_
 _symmetry_equiv_pos_site_id
 _symmetry_equiv_pos_as_xyz
  1  'x, y, z'
loop_
 _atom_site_type_symbol
 _atom_site_label
 _atom_site_symmetry_multiplicity
 _atom_site_fract_x
 _atom_site_fract_y
 _atom_site_fract_z
 _atom_site_occupancy
  Rb  Rb0  1  0.02414919  -0.03353872  -0.00183952  1
  Rb  Rb1  1  0.05923745  -0.00000851  0.53054887  1
  Na  Na2  1  0.60827922  0.08550078  -0.02039209  1
  Na  Na3  1  0.50502233  0.07127312  0.38912299  1
  Ge  Ge4  1  0.22587627  0.47724852  0.24057974  1
  Sn  Sn5  1  0.27728742  0.47200678  0.77602485  1
  Ge  Ge6  1  0.72826847  0.57172658  0.25759456  1
  Ge  Ge7  1  0.77016044  0.55696196  0.75497373  1
  Cl  Cl8  1  0.17089818  0.47090494  0.03157401  1
  I  I9  1  0.31297328  0.43385932  0.51317772  1
  I  I10  1  0.81642917  0.46359149  0.00184039  1
  I  I11  1  0.66226097  0.65442433  0.49776343  1
  I  I12  1  -0.01523957  0.49804893  0.32926855  1
  Br  Br13  1  -0.00439672  0.51392913  0.70251219  1
  I  I14  1  0.48976280  0.45117729  0.18222755  1
  Br  Br15  1  0.51593591  0.48124133  0.82997148  1
  I  I16  1  0.24856131  -0.03360634  0.25772978  1
  Br  Br17  1  0.24860056  -0.02088230  0.78587616  1
  Cl  Cl18  1  0.71134470  -0.02695966  0.21213014  1
  Cl  Cl19  1  0.77340244  -0.04084663  0.79259029  1
