# generated using pymatgen
data_Rb3NaSnGe3(I3Cl)3
_symmetry_space_group_name_H-M   'P 1'
_cell_length_a   11.60667390
_cell_length_b   6.05580602
_cell_length_c   11.35754498
_cell_angle_alpha   90.00000000
_cell_angle_beta   90.00000000
_cell_angle_gamma   90.00000000
_symmetry_Int_Tables_number   1
_chemical_formula_structural   Rb3NaSnGe3(I3Cl)3
_chemical_formula_sum   'Rb3 Na1 Sn1 Ge3 I9 Cl3'
_cell_volume   798.29645945
_cell_formula_units_Z   1
loop_
 _symmetry_equiv_pos_site_id
 _symmetry_equiv_pos_as_xyz
  1  'x, y, z'
loop_
 _atom_site_type_symbol
 _atom_site_label
 _atom_site_symmetry_multiplicity
 _atom_site_fract_x
 _atom_site_fract_y
 _atom_site_fract_z
 _atom_site_occupancy
  Rb  Rb0  1  0.00310945  -0.00000936  -0.02196989  1
  Rb  Rb1  1  -0.05211460  0.00010377  0.47922661  1
  Na  Na2  1  0.52255261  0.00020454  -0.04394054  1
  Rb  Rb3  1  0.47130733  -0.00008109  0.47607494  1
  Ge  Ge4  1  0.19812107  0.49942032  0.26631133  1
  Ge  Ge5  1  0.27339259  0.49941836  0.73772368  1
  Sn  Sn6  1  0.72959962  0.49991441  0.23326245  1
  Ge  Ge7  1  0.77147100  0.49904468  0.77880528  1
  I  I8  1  0.18302785  0.50007929  0.02180818  1
  Cl  Cl9  1  0.33454981  0.49963232  0.53574142  1
  Cl  Cl10  1  0.84526984  0.49979049  -0.02001435  1
  I  I11  1  0.70254162  0.50035146  0.49997095  1
  Cl  Cl12  1  -0.01329695  0.49996154  0.31077509  1
  I  I13  1  0.02759884  0.50002236  0.68078212  1
  I  I14  1  0.47097222  0.50007785  0.21789016  1
  I  I15  1  0.52950063  0.50025217  0.85541655  1
  I  I16  1  0.20642665  0.00104550  0.28812447  1
  I  I17  1  0.29038361  0.00116717  0.77063945  1
  I  I18  1  0.72759825  0.00000641  0.17417015  1
  I  I19  1  0.75720312  0.00050711  0.75880209  1
