# generated using pymatgen
data_CsKNa2Ge4I3(BrCl2)3
_symmetry_space_group_name_H-M   'P 1'
_cell_length_a   11.14702996
_cell_length_b   5.78439244
_cell_length_c   11.37640479
_cell_angle_alpha   90.00000000
_cell_angle_beta   90.00000000
_cell_angle_gamma   90.00000000
_symmetry_Int_Tables_number   1
_chemical_formula_structural   CsKNa2Ge4I3(BrCl2)3
_chemical_formula_sum   'Cs1 K1 Na2 Ge4 I3 Br3 Cl6'
_cell_volume   733.53688237
_cell_formula_units_Z   1
loop_
 _symmetry_equiv_pos_site_id
 _symmetry_equiv_pos_as_xyz
  1  'x, y, z'
loop_
 _atom_site_type_symbol
 _atom_site_label
 _atom_site_symmetry_multiplicity
 _atom_site_fract_x
 _atom_site_fract_y
 _atom_site_fract_z
 _atom_site_occupancy
  Na  Na0  1  0.00954807  0.10384832  -0.10250549  1
  K  K1  1  -0.05236927  0.02819001  0.50800549  1
  Cs  Cs2  1  0.55273678  -0.01477520  0.02729952  1
  Na  Na3  1  0.48151847  0.05804875  0.44776164  1
  Ge  Ge4  1  0.27932798  0.49255985  0.27050289  1
  Ge  Ge5  1  0.24515943  0.51951785  0.75565417  1
  Ge  Ge6  1  0.75478019  0.50022676  0.30756216  1
  Ge  Ge7  1  0.77348124  0.51390805  0.77138069  1
  I  I8  1  0.16967986  0.55523162  -0.00720680  1
  Br  Br9  1  0.35929313  0.53318345  0.48654984  1
  Br  Br10  1  0.80985165  0.44754141  -0.00452129  1
  Cl  Cl11  1  0.69531215  0.40476410  0.50577144  1
  Cl  Cl12  1  -0.03535607  0.53536022  0.35583630  1
  Cl  Cl13  1  -0.01664776  0.45379041  0.70369954  1
  Cl  Cl14  1  0.48231373  0.48149494  0.19608058  1
  I  I15  1  0.49220440  0.49200439  0.80748166  1
  Br  Br16  1  0.26298299  0.04393119  0.28040861  1
  I  I17  1  0.22435970  0.00851767  0.70406565  1
  Cl  Cl18  1  0.70936354  -0.08599927  0.32215232  1
  Cl  Cl19  1  0.79509433  -0.06337217  0.77578875  1
