# generated using pymatgen
data_CsKRbNaSn3GeI3(BrCl2)3
_symmetry_space_group_name_H-M   'P 1'
_cell_length_a   11.20459824
_cell_length_b   5.82202329
_cell_length_c   11.72397133
_cell_angle_alpha   90.00000000
_cell_angle_beta   90.00000000
_cell_angle_gamma   90.00000000
_symmetry_Int_Tables_number   1
_chemical_formula_structural   CsKRbNaSn3GeI3(BrCl2)3
_chemical_formula_sum   'Cs1 Rb1 K1 Na1 Sn3 Ge1 I3 Br3 Cl6'
_cell_volume   764.79488614
_cell_formula_units_Z   1
loop_
 _symmetry_equiv_pos_site_id
 _symmetry_equiv_pos_as_xyz
  1  'x, y, z'
loop_
 _atom_site_type_symbol
 _atom_site_label
 _atom_site_symmetry_multiplicity
 _atom_site_fract_x
 _atom_site_fract_y
 _atom_site_fract_z
 _atom_site_occupancy
  Rb  Rb0  1  -0.04011885  -0.02363834  0.03977048  1
  Cs  Cs1  1  0.02337466  -0.00160718  0.46003111  1
  Na  Na2  1  0.52476669  -0.07391748  0.05884842  1
  K  K3  1  0.51282482  -0.03510448  0.52604481  1
  Sn  Sn4  1  0.24257556  0.48920978  0.22596503  1
  Sn  Sn5  1  0.26913071  0.46657750  0.73627883  1
  Ge  Ge6  1  0.72588574  0.53288520  0.25583753  1
  Sn  Sn7  1  0.72091203  0.49032548  0.77545931  1
  I  I8  1  0.39175205  0.42904127  -0.02611997  1
  Br  Br9  1  0.22459655  0.49177746  0.46851401  1
  Cl  Cl10  1  0.71904484  0.60964042  0.04914385  1
  I  I11  1  0.80319538  0.50488601  0.52871757  1
  Cl  Cl12  1  0.00341636  0.46893576  0.21165844  1
  I  I13  1  -0.00326731  0.47095660  0.84118835  1
  Cl  Cl14  1  0.51346002  0.62638454  0.28590392  1
  Cl  Cl15  1  0.49848236  0.47044962  0.64717265  1
  Cl  Cl16  1  0.22470116  -0.04952366  0.20173010  1
  Br  Br17  1  0.25829689  -0.02027420  0.70110782  1
  Cl  Cl18  1  0.70211980  0.12212997  0.23827723  1
  Br  Br19  1  0.67944947  -0.00659267  0.79945851  1
