# generated using pymatgen
data_K2Rb2Sn2Ge2(IBr3)3
_symmetry_space_group_name_H-M   'P 1'
_cell_length_a   11.71069928
_cell_length_b   5.92212115
_cell_length_c   11.31928974
_cell_angle_alpha   90.00000000
_cell_angle_beta   90.00000000
_cell_angle_gamma   90.00000000
_symmetry_Int_Tables_number   1
_chemical_formula_structural   K2Rb2Sn2Ge2(IBr3)3
_chemical_formula_sum   'K2 Rb2 Sn2 Ge2 I3 Br9'
_cell_volume   785.01741855
_cell_formula_units_Z   1
loop_
 _symmetry_equiv_pos_site_id
 _symmetry_equiv_pos_as_xyz
  1  'x, y, z'
loop_
 _atom_site_type_symbol
 _atom_site_label
 _atom_site_symmetry_multiplicity
 _atom_site_fract_x
 _atom_site_fract_y
 _atom_site_fract_z
 _atom_site_occupancy
  K  K0  1  0.03570234  -0.00869495  0.02987586  1
  Rb  Rb1  1  0.00076751  -0.00743671  0.50638224  1
  Rb  Rb2  1  0.49980440  -0.00723646  0.02027618  1
  K  K3  1  0.50266429  -0.00524596  0.51839307  1
  Ge  Ge4  1  0.26740448  0.52502991  0.25847929  1
  Sn  Sn5  1  0.24976833  0.49458270  0.75225529  1
  Ge  Ge6  1  0.78590174  0.49349025  0.25504528  1
  Sn  Sn7  1  0.73180307  0.49154180  0.75781757  1
  Br  Br8  1  0.30656599  0.49368875  0.02592669  1
  Br  Br9  1  0.18070324  0.49257900  0.51135949  1
  Br  Br10  1  0.66884952  0.49291446  -0.00400364  1
  Br  Br11  1  0.82027584  0.49311904  0.48408088  1
  Br  Br12  1  0.00454487  0.49027741  0.20045648  1
  I  I13  1  -0.00779346  0.49181825  0.83565247  1
  I  I14  1  0.50449318  0.49822411  0.31500476  1
  Br  Br15  1  0.49153269  0.49321719  0.67592877  1
  Br  Br16  1  0.25318746  -0.03584802  0.25953520  1
  Br  Br17  1  0.25619040  -0.00773099  0.76279201  1
  I  I18  1  0.76894427  -0.00593319  0.23624922  1
  Br  Br19  1  0.72656689  -0.00891368  0.73286068  1
