# generated using pymatgen
data_CsRb3SnGe3(BrCl)6
_symmetry_space_group_name_H-M   'P 1'
_cell_length_a   11.21835321
_cell_length_b   5.67566100
_cell_length_c   11.19991873
_cell_angle_alpha   90.00000000
_cell_angle_beta   90.00000000
_cell_angle_gamma   90.00000000
_symmetry_Int_Tables_number   1
_chemical_formula_structural   CsRb3SnGe3(BrCl)6
_chemical_formula_sum   'Cs1 Rb3 Sn1 Ge3 Br6 Cl6'
_cell_volume   713.11640748
_cell_formula_units_Z   1
loop_
 _symmetry_equiv_pos_site_id
 _symmetry_equiv_pos_as_xyz
  1  'x, y, z'
loop_
 _atom_site_type_symbol
 _atom_site_label
 _atom_site_symmetry_multiplicity
 _atom_site_fract_x
 _atom_site_fract_y
 _atom_site_fract_z
 _atom_site_occupancy
  Rb  Rb0  1  0.01558571  -0.00045069  -0.00086637  1
  Cs  Cs1  1  -0.00439841  -0.00524183  0.50892195  1
  Rb  Rb2  1  0.49644746  0.01421143  0.01863439  1
  Rb  Rb3  1  0.53975824  -0.00076754  0.49940630  1
  Ge  Ge4  1  0.22559575  0.48918427  0.25568733  1
  Sn  Sn5  1  0.24810553  0.50396955  0.74334131  1
  Ge  Ge6  1  0.74857687  0.48756034  0.26833460  1
  Ge  Ge7  1  0.75669992  0.52783634  0.76589261  1
  Br  Br8  1  0.30040900  0.51323980  -0.01049073  1
  Cl  Cl9  1  0.18423321  0.49604196  0.47416765  1
  Br  Br10  1  0.69797304  0.51696269  -0.01092574  1
  Cl  Cl11  1  0.78822674  0.48996025  0.48351687  1
  Cl  Cl12  1  0.01735161  0.49855340  0.19537337  1
  Cl  Cl13  1  -0.02338561  0.50771275  0.80726927  1
  Br  Br14  1  0.51749314  0.50012089  0.29289839  1
  Br  Br15  1  0.49244049  0.49702617  0.68500873  1
  Br  Br16  1  0.24749482  0.02139488  0.24679259  1
  Cl  Cl17  1  0.22967463  0.00951617  0.75264908  1
  Br  Br18  1  0.76001214  0.01910342  0.24795001  1
  Cl  Cl19  1  0.75335131  -0.04517504  0.74491507  1
