# generated using pymatgen
data_K2RbNaSn3GeI6(BrCl)3
_symmetry_space_group_name_H-M   'P 1'
_cell_length_a   11.49789340
_cell_length_b   6.26949203
_cell_length_c   11.34878983
_cell_angle_alpha   90.00000000
_cell_angle_beta   90.00000000
_cell_angle_gamma   90.00000000
_symmetry_Int_Tables_number   1
_chemical_formula_structural   K2RbNaSn3GeI6(BrCl)3
_chemical_formula_sum   'K2 Rb1 Na1 Sn3 Ge1 I6 Br3 Cl3'
_cell_volume   818.08830775
_cell_formula_units_Z   1
loop_
 _symmetry_equiv_pos_site_id
 _symmetry_equiv_pos_as_xyz
  1  'x, y, z'
loop_
 _atom_site_type_symbol
 _atom_site_label
 _atom_site_symmetry_multiplicity
 _atom_site_fract_x
 _atom_site_fract_y
 _atom_site_fract_z
 _atom_site_occupancy
  K  K0  1  -0.04574611  0.00544066  -0.07232535  1
  Na  Na1  1  0.07512454  -0.10008495  0.50160622  1
  Rb  Rb2  1  0.51090834  -0.01183725  -0.02168241  1
  K  K3  1  0.54199338  0.02115189  0.44718522  1
  Sn  Sn4  1  0.25623282  0.44402782  0.27531260  1
  Sn  Sn5  1  0.23841735  0.49766828  0.76913206  1
  Sn  Sn6  1  0.80801102  0.47276577  0.17499167  1
  Ge  Ge7  1  0.74102471  0.61202618  0.69135374  1
  I  I8  1  0.10107639  0.48445530  0.04029126  1
  I  I9  1  0.37968910  0.50037983  0.53385071  1
  Cl  Cl10  1  0.77532777  0.42478803  -0.05110573  1
  Br  Br11  1  0.72351913  0.60026983  0.46778711  1
  I  I12  1  0.03486358  0.40089163  0.41614072  1
  Cl  Cl13  1  -0.05398773  0.71263796  0.69742173  1
  I  I14  1  0.54366101  0.41540915  0.20336684  1
  Cl  Cl15  1  0.43311851  0.49598795  0.87786471  1
  I  I16  1  0.26939629  -0.05530551  0.27603896  1
  I  I17  1  0.23038302  -0.00014999  0.75137789  1
  Br  Br18  1  0.78754773  -0.08065196  0.16371732  1
  Br  Br19  1  0.67257327  0.00094545  0.71851199  1
