# generated using pymatgen
data_Cs2K2SnGe3I3(BrCl2)3
_symmetry_space_group_name_H-M   'P 1'
_cell_length_a   11.19039576
_cell_length_b   5.88179331
_cell_length_c   11.45077737
_cell_angle_alpha   90.00000000
_cell_angle_beta   90.00000000
_cell_angle_gamma   90.00000000
_symmetry_Int_Tables_number   1
_chemical_formula_structural   Cs2K2SnGe3I3(BrCl2)3
_chemical_formula_sum   'Cs2 K2 Sn1 Ge3 I3 Br3 Cl6'
_cell_volume   753.68552748
_cell_formula_units_Z   1
loop_
 _symmetry_equiv_pos_site_id
 _symmetry_equiv_pos_as_xyz
  1  'x, y, z'
loop_
 _atom_site_type_symbol
 _atom_site_label
 _atom_site_symmetry_multiplicity
 _atom_site_fract_x
 _atom_site_fract_y
 _atom_site_fract_z
 _atom_site_occupancy
  Cs  Cs0  1  -0.00303742  -0.00934063  0.01477124  1
  Cs  Cs1  1  -0.00583582  -0.00388911  0.50602416  1
  K  K2  1  0.48847919  0.00070988  0.01412017  1
  K  K3  1  0.51069657  -0.00149153  0.55331502  1
  Ge  Ge4  1  0.26695714  0.46117009  0.23099214  1
  Ge  Ge5  1  0.22326421  0.49168924  0.76363213  1
  Sn  Sn6  1  0.74053685  0.49206447  0.24267302  1
  Ge  Ge7  1  0.74089368  0.46019010  0.78280633  1
  Cl  Cl8  1  0.18350409  0.49475134  -0.02637719  1
  I  I9  1  0.31212537  0.48712806  0.47710610  1
  Cl  Cl10  1  0.80385630  0.48535403  -0.00308503  1
  I  I11  1  0.70347944  0.50307827  0.51242369  1
  Br  Br12  1  -0.00949098  0.49933101  0.28449020  1
  Cl  Cl13  1  0.01471248  0.49357615  0.70493170  1
  Cl  Cl14  1  0.47660921  0.49623321  0.16363744  1
  Br  Br15  1  0.51382772  0.50006529  0.82101956  1
  Cl  Cl16  1  0.26203228  0.05218043  0.21664741  1
  I  I17  1  0.25820373  -0.00789739  0.75692771  1
  Br  Br18  1  0.72366003  -0.00673713  0.23542250  1
  Cl  Cl19  1  0.74023797  0.04762599  0.77379522  1
