# generated using pymatgen
data_Cs2KRbSn2Ge2(BrCl)6
_symmetry_space_group_name_H-M   'P 1'
_cell_length_a   11.13491275
_cell_length_b   5.88373655
_cell_length_c   11.12374435
_cell_angle_alpha   90.00000000
_cell_angle_beta   90.00000000
_cell_angle_gamma   90.00000000
_symmetry_Int_Tables_number   1
_chemical_formula_structural   Cs2KRbSn2Ge2(BrCl)6
_chemical_formula_sum   'Cs2 Rb1 K1 Sn2 Ge2 Br6 Cl6'
_cell_volume   728.77092214
_cell_formula_units_Z   1
loop_
 _symmetry_equiv_pos_site_id
 _symmetry_equiv_pos_as_xyz
  1  'x, y, z'
loop_
 _atom_site_type_symbol
 _atom_site_label
 _atom_site_symmetry_multiplicity
 _atom_site_fract_x
 _atom_site_fract_y
 _atom_site_fract_z
 _atom_site_occupancy
  Rb  Rb0  1  0.01226457  0.00728448  0.00947427  1
  K  K1  1  -0.01753945  0.00159202  0.50705569  1
  Cs  Cs2  1  0.50692786  0.00158779  -0.00478428  1
  Cs  Cs3  1  0.47283805  0.00623779  0.49342155  1
  Ge  Ge4  1  0.23220409  0.53553652  0.24237231  1
  Ge  Ge5  1  0.22055282  0.52996137  0.75294312  1
  Sn  Sn6  1  0.74355502  0.50741309  0.25820163  1
  Sn  Sn7  1  0.74895783  0.50609139  0.75246454  1
  Br  Br8  1  0.29882205  0.50027181  0.01742552  1
  Br  Br9  1  0.17297107  0.50007255  0.51957335  1
  Cl  Cl10  1  0.70028013  0.50390039  0.00468048  1
  Cl  Cl11  1  0.81353056  0.50651825  0.50436879  1
  Cl  Cl12  1  0.01813296  0.50604913  0.19120613  1
  Cl  Cl13  1  0.01005360  0.50800778  0.82586030  1
  Cl  Cl14  1  0.50828319  0.50775327  0.30572112  1
  Br  Br15  1  0.49606421  0.50116004  0.71010739  1
  Cl  Cl16  1  0.23146397  -0.05172556  0.25010509  1
  Br  Br17  1  0.22706861  -0.02389511  0.75605055  1
  Br  Br18  1  0.76074648  0.00677610  0.25802953  1
  Br  Br19  1  0.76720366  0.00617815  0.75040560  1
