# generated using pymatgen
data_CsKSnGeI6
_symmetry_space_group_name_H-M   'P 1'
_cell_length_a   12.18981696
_cell_length_b   6.12002076
_cell_length_c   12.18596478
_cell_angle_alpha   90.00000000
_cell_angle_beta   90.00000000
_cell_angle_gamma   90.00000000
_symmetry_Int_Tables_number   1
_chemical_formula_structural   CsKSnGeI6
_chemical_formula_sum   'Cs2 K2 Sn2 Ge2 I12'
_cell_volume   909.09652677
_cell_formula_units_Z   2
loop_
 _symmetry_equiv_pos_site_id
 _symmetry_equiv_pos_as_xyz
  1  'x, y, z'
loop_
 _atom_site_type_symbol
 _atom_site_label
 _atom_site_symmetry_multiplicity
 _atom_site_fract_x
 _atom_site_fract_y
 _atom_site_fract_z
 _atom_site_occupancy
  K  K0  1  -0.00000000  0.00000000  0.00000000  1
  Cs  Cs1  1  -0.00000000  0.00000000  0.50000000  1
  K  K2  1  0.50000000  0.00000000  -0.00000000  1
  Cs  Cs3  1  0.50000000  0.00000000  0.50000000  1
  Ge  Ge4  1  0.24955434  0.50000000  0.24757753  1
  Sn  Sn5  1  0.25038122  0.50000000  0.74917862  1
  Sn  Sn6  1  0.74961878  0.50000000  0.25082138  1
  Ge  Ge7  1  0.75044566  0.50000000  0.75242247  1
  I  I8  1  0.25095923  0.50000000  0.00590861  1
  I  I9  1  0.24897078  0.50000000  0.49375853  1
  I  I10  1  0.74904077  0.50000000  -0.00590861  1
  I  I11  1  0.75102922  0.50000000  0.50624147  1
  I  I12  1  0.00610640  0.50000000  0.24450505  1
  I  I13  1  -0.00610640  0.50000000  0.75549495  1
  I  I14  1  0.49422601  0.50000000  0.24611532  1
  I  I15  1  0.50577399  0.50000000  0.75388468  1
  I  I16  1  0.25039338  0.00000000  0.24503496  1
  I  I17  1  0.25048101  0.00000000  0.75570351  1
  I  I18  1  0.74951899  0.00000000  0.24429649  1
  I  I19  1  0.74960662  0.00000000  0.75496504  1
