# generated using pymatgen
data_K3RbSn3GeI6(BrCl)3
_symmetry_space_group_name_H-M   'P 1'
_cell_length_a   11.46913581
_cell_length_b   6.03518201
_cell_length_c   11.65620184
_cell_angle_alpha   90.00000000
_cell_angle_beta   90.00000000
_cell_angle_gamma   90.00000000
_symmetry_Int_Tables_number   1
_chemical_formula_structural   K3RbSn3GeI6(BrCl)3
_chemical_formula_sum   'Rb1 K3 Sn3 Ge1 I6 Br3 Cl3'
_cell_volume   806.82273302
_cell_formula_units_Z   1
loop_
 _symmetry_equiv_pos_site_id
 _symmetry_equiv_pos_as_xyz
  1  'x, y, z'
loop_
 _atom_site_type_symbol
 _atom_site_label
 _atom_site_symmetry_multiplicity
 _atom_site_fract_x
 _atom_site_fract_y
 _atom_site_fract_z
 _atom_site_occupancy
  Rb  Rb0  1  -0.00698345  0.00056990  -0.02267805  1
  K  K1  1  0.00978278  -0.00048295  0.45959828  1
  K  K2  1  0.45679725  0.00064620  0.00762273  1
  K  K3  1  0.53712236  -0.00018312  0.47339916  1
  Sn  Sn4  1  0.26623354  0.50235606  0.25011398  1
  Sn  Sn5  1  0.23146387  0.49889783  0.75776027  1
  Ge  Ge6  1  0.73234231  0.49991481  0.24504877  1
  Sn  Sn7  1  0.75701157  0.49998900  0.74793790  1
  Cl  Cl8  1  0.31657174  0.50279437  0.02631820  1
  Br  Br9  1  0.17066847  0.49841736  0.52193904  1
  I  I10  1  0.65535139  0.50008586  -0.00339468  1
  I  I11  1  0.82278353  0.50007059  0.48203436  1
  I  I12  1  0.00980775  0.50080770  0.18427293  1
  Cl  Cl13  1  -0.00071882  0.50017595  0.83202343  1
  Cl  Cl14  1  0.52600280  0.49903712  0.31463579  1
  I  I15  1  0.49651445  0.50005889  0.66171730  1
  Br  Br16  1  0.28019341  -0.00287378  0.26595925  1
  Br  Br17  1  0.24231066  0.00666869  0.78616137  1
  I  I18  1  0.74660355  0.00008578  0.23366524  1
  I  I19  1  0.78562930  -0.00000616  0.71996279  1
