# generated using pymatgen
data_CsKRbNaSn2Ge2I6(BrCl)3
_symmetry_space_group_name_H-M   'P 1'
_cell_length_a   11.43373556
_cell_length_b   5.86528572
_cell_length_c   12.00904461
_cell_angle_alpha   90.00000000
_cell_angle_beta   90.00000000
_cell_angle_gamma   90.00000000
_symmetry_Int_Tables_number   1
_chemical_formula_structural   CsKRbNaSn2Ge2I6(BrCl)3
_chemical_formula_sum   'Cs1 K1 Rb1 Na1 Sn2 Ge2 I6 Br3 Cl3'
_cell_volume   805.35206228
_cell_formula_units_Z   1
loop_
 _symmetry_equiv_pos_site_id
 _symmetry_equiv_pos_as_xyz
  1  'x, y, z'
loop_
 _atom_site_type_symbol
 _atom_site_label
 _atom_site_symmetry_multiplicity
 _atom_site_fract_x
 _atom_site_fract_y
 _atom_site_fract_z
 _atom_site_occupancy
  Na  Na0  1  0.00172264  -0.00000552  0.10213891  1
  K  K1  1  -0.04704864  -0.00000261  0.53556911  1
  Cs  Cs2  1  0.47079465  -0.00000229  -0.02910685  1
  Rb  Rb3  1  0.49143649  0.00000915  0.51319110  1
  Ge  Ge4  1  0.27166628  0.50022831  0.27272326  1
  Ge  Ge5  1  0.22334590  0.49999148  0.74739484  1
  Sn  Sn6  1  0.75335354  0.49998732  0.24119643  1
  Sn  Sn7  1  0.72698341  0.50000044  0.76134071  1
  I  I8  1  0.20893795  0.49995456  -0.02053738  1
  Cl  Cl9  1  0.33975774  0.50008324  0.46185698  1
  I  I10  1  0.86013704  0.49998830  0.00737237  1
  I  I11  1  0.69970837  0.49999657  0.50604047  1
  I  I12  1  0.02331161  0.49996926  0.34023796  1
  Br  Br13  1  0.00186731  0.49999909  0.69293155  1
  Br  Br14  1  0.51136712  0.50000272  0.17432232  1
  Cl  Cl15  1  0.49776039  0.50000043  0.79532795  1
  I  I16  1  0.25456225  -0.00016454  0.23404119  1
  I  I17  1  0.24245802  0.00001262  0.70742391  1
  Br  Br18  1  0.78504971  -0.00003451  0.24577467  1
  Cl  Cl19  1  0.72030269  -0.00000161  0.74156876  1
