# generated using pymatgen
data_Rb3NaSn2Ge2(I3Cl)3
_symmetry_space_group_name_H-M   'P 1'
_cell_length_a   11.62377638
_cell_length_b   5.83836356
_cell_length_c   12.00761276
_cell_angle_alpha   90.00000000
_cell_angle_beta   90.00000000
_cell_angle_gamma   90.00000000
_symmetry_Int_Tables_number   1
_chemical_formula_structural   Rb3NaSn2Ge2(I3Cl)3
_chemical_formula_sum   'Rb3 Na1 Sn2 Ge2 I9 Cl3'
_cell_volume   814.88262024
_cell_formula_units_Z   1
loop_
 _symmetry_equiv_pos_site_id
 _symmetry_equiv_pos_as_xyz
  1  'x, y, z'
loop_
 _atom_site_type_symbol
 _atom_site_label
 _atom_site_symmetry_multiplicity
 _atom_site_fract_x
 _atom_site_fract_y
 _atom_site_fract_z
 _atom_site_occupancy
  Na  Na0  1  0.00037754  -0.00000000  0.08324446  1
  Rb  Rb1  1  -0.00013605  0.00000000  0.52580564  1
  Rb  Rb2  1  0.49977701  -0.00000000  0.00242892  1
  Rb  Rb3  1  0.50009252  -0.00000000  0.56874185  1
  Ge  Ge4  1  0.24905846  0.50000000  0.24547231  1
  Sn  Sn5  1  0.22994021  0.50000001  0.74227632  1
  Ge  Ge6  1  0.74982208  0.50000000  0.24480190  1
  Sn  Sn7  1  0.76999331  0.50000001  0.74218319  1
  I  I8  1  0.17562454  0.50000000  -0.00057765  1
  I  I9  1  0.31003320  0.50000000  0.48693334  1
  I  I10  1  0.82467328  0.50000000  -0.00072629  1
  I  I11  1  0.69036957  0.50000000  0.48676874  1
  I  I12  1  0.00032750  0.50000000  0.31335207  1
  Cl  Cl13  1  -0.00001829  0.50000000  0.66835258  1
  I  I14  1  0.50030205  0.50000000  0.18340671  1
  I  I15  1  0.50001926  0.50000000  0.80166242  1
  I  I16  1  0.24000034  0.00000000  0.23081009  1
  Cl  Cl17  1  0.23912721  -0.00000002  0.72430411  1
  I  I18  1  0.76098305  0.00000000  0.23117279  1
  Cl  Cl19  1  0.76086181  -0.00000001  0.72429799  1
