# generated using pymatgen
data_CsK2NaSn2Ge2I3(BrCl2)3
_symmetry_space_group_name_H-M   'P 1'
_cell_length_a   11.10439241
_cell_length_b   5.89084110
_cell_length_c   11.62711457
_cell_angle_alpha   90.00000000
_cell_angle_beta   90.00000000
_cell_angle_gamma   90.00000000
_symmetry_Int_Tables_number   1
_chemical_formula_structural   CsK2NaSn2Ge2I3(BrCl2)3
_chemical_formula_sum   'Cs1 K2 Na1 Sn2 Ge2 I3 Br3 Cl6'
_cell_volume   760.57852788
_cell_formula_units_Z   1
loop_
 _symmetry_equiv_pos_site_id
 _symmetry_equiv_pos_as_xyz
  1  'x, y, z'
loop_
 _atom_site_type_symbol
 _atom_site_label
 _atom_site_symmetry_multiplicity
 _atom_site_fract_x
 _atom_site_fract_y
 _atom_site_fract_z
 _atom_site_occupancy
  K  K0  1  -0.03705953  -0.01821123  -0.00830582  1
  K  K1  1  0.00781078  0.00201095  0.42866580  1
  Na  Na2  1  0.50154961  -0.16035217  -0.08344895  1
  Cs  Cs3  1  0.47925861  0.00538377  0.49668971  1
  Sn  Sn4  1  0.25771358  0.48989169  0.25075560  1
  Ge  Ge5  1  0.23037918  0.49647403  0.79682389  1
  Sn  Sn6  1  0.74092522  0.49633622  0.24871961  1
  Ge  Ge7  1  0.73651717  0.46367333  0.77451160  1
  Cl  Cl8  1  0.32239985  0.51462334  -0.00717427  1
  I  I9  1  0.19811855  0.51060144  0.50928610  1
  Cl  Cl10  1  0.69299650  0.55212960  -0.01890081  1
  I  I11  1  0.81380573  0.49371804  0.50110386  1
  Br  Br12  1  0.00000638  0.49945848  0.18265937  1
  Cl  Cl13  1  0.01838994  0.49006481  0.85028945  1
  Cl  Cl14  1  0.50013547  0.50111767  0.32351051  1
  Br  Br15  1  0.51374548  0.51614827  0.71041567  1
  Cl  Cl16  1  0.24555324  0.03031140  0.26260234  1
  I  I17  1  0.25462986  0.00314520  0.78121742  1
  Br  Br18  1  0.75727930  -0.00324460  0.23965710  1
  Cl  Cl19  1  0.72508421  0.05600682  0.79824600  1
