# generated using pymatgen
data_CsK2NaSn2Ge2I6(BrCl)3
_symmetry_space_group_name_H-M   'P 1'
_cell_length_a   11.57759325
_cell_length_b   5.98888725
_cell_length_c   11.52186052
_cell_angle_alpha   90.00000000
_cell_angle_beta   90.00000000
_cell_angle_gamma   90.00000000
_symmetry_Int_Tables_number   1
_chemical_formula_structural   CsK2NaSn2Ge2I6(BrCl)3
_chemical_formula_sum   'Cs1 K2 Na1 Sn2 Ge2 I6 Br3 Cl3'
_cell_volume   798.89009844
_cell_formula_units_Z   1
loop_
 _symmetry_equiv_pos_site_id
 _symmetry_equiv_pos_as_xyz
  1  'x, y, z'
loop_
 _atom_site_type_symbol
 _atom_site_label
 _atom_site_symmetry_multiplicity
 _atom_site_fract_x
 _atom_site_fract_y
 _atom_site_fract_z
 _atom_site_occupancy
  K  K0  1  -0.03498580  -0.00048609  0.04932226  1
  Cs  Cs1  1  -0.04708743  -0.00082178  0.52462285  1
  K  K2  1  0.50193854  -0.00024515  -0.04702958  1
  Na  Na3  1  0.41898598  0.00014276  0.47486541  1
  Ge  Ge4  1  0.26188365  0.49844874  0.23337800  1
  Ge  Ge5  1  0.23877474  0.49990343  0.73991887  1
  Sn  Sn6  1  0.74768798  0.49687142  0.25654647  1
  Sn  Sn7  1  0.74821892  0.49887097  0.77573212  1
  I  I8  1  0.16597021  0.49990958  -0.01702040  1
  I  I9  1  0.34567973  0.50007794  0.47983318  1
  Cl  Cl10  1  0.81651328  0.49802829  0.03090162  1
  Br  Br11  1  0.71857269  0.49629040  0.52939572  1
  I  I12  1  0.01119677  0.49920482  0.31171991  1
  Cl  Cl13  1  0.04088384  0.49968871  0.67952026  1
  I  I14  1  0.49710069  0.49952779  0.14150208  1
  Cl  Cl15  1  0.52574475  0.49951334  0.80925578  1
  I  I16  1  0.25762104  0.00001827  0.23657775  1
  I  I17  1  0.27464882  -0.00004844  0.72591258  1
  Br  Br18  1  0.74573178  -0.00390536  0.25606625  1
  Br  Br19  1  0.76771970  0.00268528  0.80272162  1
