# generated using pymatgen
data_KNa3Sn2Ge2I3(BrCl2)3
_symmetry_space_group_name_H-M   'P 1'
_cell_length_a   10.72249058
_cell_length_b   5.78028746
_cell_length_c   11.65570012
_cell_angle_alpha   90.00000000
_cell_angle_beta   90.00000000
_cell_angle_gamma   90.00000000
_symmetry_Int_Tables_number   1
_chemical_formula_structural   KNa3Sn2Ge2I3(BrCl2)3
_chemical_formula_sum   'K1 Na3 Sn2 Ge2 I3 Br3 Cl6'
_cell_volume   722.40954511
_cell_formula_units_Z   1
loop_
 _symmetry_equiv_pos_site_id
 _symmetry_equiv_pos_as_xyz
  1  'x, y, z'
loop_
 _atom_site_type_symbol
 _atom_site_label
 _atom_site_symmetry_multiplicity
 _atom_site_fract_x
 _atom_site_fract_y
 _atom_site_fract_z
 _atom_site_occupancy
  Na  Na0  1  0.01249392  -0.10375827  -0.00742476  1
  K  K1  1  -0.00730296  0.03867268  0.49878257  1
  Na  Na2  1  0.40822855  -0.17682055  -0.00031469  1
  Na  Na3  1  0.56582615  0.06355677  0.46435802  1
  Ge  Ge4  1  0.28110782  0.49513036  0.24030631  1
  Ge  Ge5  1  0.24618853  0.44792377  0.77044963  1
  Sn  Sn6  1  0.76235729  0.51103538  0.24153930  1
  Sn  Sn7  1  0.74289532  0.50948184  0.71762567  1
  Cl  Cl8  1  0.19452470  0.54053533  0.04650123  1
  I  I9  1  0.30091947  0.34780295  0.54284762  1
  I  I10  1  0.85338805  0.40036105  -0.02719379  1
  Br  Br11  1  0.64794796  0.56273196  0.47140953  1
  Br  Br12  1  0.01220187  0.53630044  0.32254271  1
  Cl  Cl13  1  -0.02482415  0.54023264  0.65344134  1
  Cl  Cl14  1  0.49795377  0.47958916  0.15202871  1
  Cl  Cl15  1  0.46159787  0.47917876  0.83088028  1
  I  I16  1  0.31606726  -0.02103401  0.27054319  1
  Br  Br17  1  0.21570750  0.00412559  0.82645612  1
  Cl  Cl18  1  0.75968324  0.05342859  0.28554896  1
  Cl  Cl19  1  0.73570255  0.06098199  0.66403914  1
