# generated using pymatgen
data_CsRb3Sn2Ge2I3(Br2Cl)3
_symmetry_space_group_name_H-M   'P 1'
_cell_length_a   11.68429640
_cell_length_b   5.87877454
_cell_length_c   11.56073534
_cell_angle_alpha   90.00000000
_cell_angle_beta   90.00000000
_cell_angle_gamma   90.00000000
_symmetry_Int_Tables_number   1
_chemical_formula_structural   CsRb3Sn2Ge2I3(Br2Cl)3
_chemical_formula_sum   'Cs1 Rb3 Sn2 Ge2 I3 Br6 Cl3'
_cell_volume   794.09932920
_cell_formula_units_Z   1
loop_
 _symmetry_equiv_pos_site_id
 _symmetry_equiv_pos_as_xyz
  1  'x, y, z'
loop_
 _atom_site_type_symbol
 _atom_site_label
 _atom_site_symmetry_multiplicity
 _atom_site_fract_x
 _atom_site_fract_y
 _atom_site_fract_z
 _atom_site_occupancy
  Rb  Rb0  1  -0.00514383  0.00930346  -0.02310949  1
  Rb  Rb1  1  -0.02762165  -0.00655516  0.48523253  1
  Rb  Rb2  1  0.52806270  0.00424415  -0.00817399  1
  Cs  Cs3  1  0.46524599  0.00020061  0.48074734  1
  Ge  Ge4  1  0.20357802  0.53241788  0.26846823  1
  Sn  Sn5  1  0.26210115  0.50504817  0.76123802  1
  Sn  Sn6  1  0.74575894  0.50630863  0.24550451  1
  Ge  Ge7  1  0.74461338  0.53588314  0.76478202  1
  Br  Br8  1  0.16495649  0.51638295  0.04640416  1
  Cl  Cl9  1  0.30024855  0.49995847  0.53701252  1
  Br  Br10  1  0.80570557  0.50119151  -0.00292138  1
  I  I11  1  0.69296612  0.49970964  0.51117797  1
  Cl  Cl12  1  0.00075677  0.49446377  0.33072344  1
  I  I13  1  -0.00019146  0.49258868  0.70575688  1
  I  I14  1  0.48735509  0.50211494  0.20414813  1
  Br  Br15  1  0.51470903  0.50413729  0.81886038  1
  Cl  Cl16  1  0.20547310  -0.05986348  0.28817015  1
  Br  Br17  1  0.26637004  0.00610742  0.78435399  1
  Br  Br18  1  0.76135986  0.00483102  0.23925452  1
  Br  Br19  1  0.74914276  -0.02206714  0.76600514  1
