# generated using pymatgen
data_Cs3RbSnGe3I6(BrCl)3
_symmetry_space_group_name_H-M   'P 1'
_cell_length_a   11.62521417
_cell_length_b   5.94371307
_cell_length_c   11.78792583
_cell_angle_alpha   90.00000000
_cell_angle_beta   90.00000000
_cell_angle_gamma   90.00000000
_symmetry_Int_Tables_number   1
_chemical_formula_structural   Cs3RbSnGe3I6(BrCl)3
_chemical_formula_sum   'Cs3 Rb1 Sn1 Ge3 I6 Br3 Cl3'
_cell_volume   814.50957271
_cell_formula_units_Z   1
loop_
 _symmetry_equiv_pos_site_id
 _symmetry_equiv_pos_as_xyz
  1  'x, y, z'
loop_
 _atom_site_type_symbol
 _atom_site_label
 _atom_site_symmetry_multiplicity
 _atom_site_fract_x
 _atom_site_fract_y
 _atom_site_fract_z
 _atom_site_occupancy
  Cs  Cs0  1  -0.00483374  0.00148131  -0.01397319  1
  Cs  Cs1  1  0.00106309  -0.00201647  0.49229097  1
  Rb  Rb2  1  0.52173291  -0.00486145  -0.01954234  1
  Cs  Cs3  1  0.50794564  0.00021637  0.46056687  1
  Ge  Ge4  1  0.21497267  0.49632904  0.24181521  1
  Ge  Ge5  1  0.27939674  0.49451676  0.76205877  1
  Ge  Ge6  1  0.74761960  0.46491594  0.23349364  1
  Sn  Sn7  1  0.74223400  0.48099760  0.75648150  1
  Br  Br8  1  0.18956212  0.49782177  0.02376759  1
  I  I9  1  0.29965913  0.49837129  0.52215643  1
  Br  Br10  1  0.78677879  0.50719539  0.00398620  1
  I  I11  1  0.72731040  0.50397830  0.49075905  1
  Cl  Cl12  1  0.01161579  0.49900220  0.29309758  1
  I  I13  1  0.00329619  0.49570807  0.72704853  1
  I  I14  1  0.50679713  0.49402539  0.20634663  1
  Cl  Cl15  1  0.48871632  0.49631353  0.81954407  1
  I  I16  1  0.24146136  -0.00341731  0.25256734  1
  I  I17  1  0.26725368  -0.00350056  0.77696944  1
  Br  Br18  1  0.76025446  0.03012467  0.23559426  1
  Cl  Cl19  1  0.73345001  0.02985912  0.76592141  1
