# generated using pymatgen
data_K2RbNaSn2Ge2I3(Br2Cl)3
_symmetry_space_group_name_H-M   'P 1'
_cell_length_a   11.36556546
_cell_length_b   5.78939296
_cell_length_c   11.49463202
_cell_angle_alpha   90.00000000
_cell_angle_beta   90.00000000
_cell_angle_gamma   90.00000000
_symmetry_Int_Tables_number   1
_chemical_formula_structural   K2RbNaSn2Ge2I3(Br2Cl)3
_chemical_formula_sum   'K2 Rb1 Na1 Sn2 Ge2 I3 Br6 Cl3'
_cell_volume   756.34362173
_cell_formula_units_Z   1
loop_
 _symmetry_equiv_pos_site_id
 _symmetry_equiv_pos_as_xyz
  1  'x, y, z'
loop_
 _atom_site_type_symbol
 _atom_site_label
 _atom_site_symmetry_multiplicity
 _atom_site_fract_x
 _atom_site_fract_y
 _atom_site_fract_z
 _atom_site_occupancy
  K  K0  1  0.00887858  -0.00434830  -0.09422419  1
  Na  Na1  1  0.00777601  -0.00900198  0.40093970  1
  Rb  Rb2  1  0.53214908  0.00324384  -0.04147302  1
  K  K3  1  0.48682145  0.00544762  0.47072207  1
  Ge  Ge4  1  0.22235954  0.47439141  0.24500861  1
  Sn  Sn5  1  0.26945473  0.50814868  0.74818593  1
  Ge  Ge6  1  0.73276421  0.50003072  0.25585263  1
  Sn  Sn7  1  0.75285772  0.51025996  0.73543896  1
  Br  Br8  1  0.17276043  0.47739261  0.02420469  1
  Br  Br9  1  0.31769514  0.50927346  0.50982662  1
  I  I10  1  0.81427796  0.49484140  -0.00089882  1
  Br  Br11  1  0.66702908  0.50412426  0.48477497  1
  Br  Br12  1  -0.00346886  0.49329191  0.33004401  1
  Br  Br13  1  0.01167270  0.52154306  0.69563647  1
  I  I14  1  0.49138567  0.50477682  0.17863059  1
  Cl  Cl15  1  0.51227492  0.50242531  0.80625315  1
  Br  Br16  1  0.23442724  0.02120382  0.27016477  1
  Cl  Cl17  1  0.27590300  -0.01938017  0.77209993  1
  I  I18  1  0.75712391  -0.00110965  0.26202517  1
  Cl  Cl19  1  0.75006441  -0.01165488  0.74902218  1
