# generated using pymatgen
data_CsRb2NaSnGe3I3(BrCl2)3
_symmetry_space_group_name_H-M   'P 1'
_cell_length_a   11.27769760
_cell_length_b   5.81821320
_cell_length_c   11.44834702
_cell_angle_alpha   90.00000000
_cell_angle_beta   90.00000000
_cell_angle_gamma   90.00000000
_symmetry_Int_Tables_number   1
_chemical_formula_structural   CsRb2NaSnGe3I3(BrCl2)3
_chemical_formula_sum   'Cs1 Rb2 Na1 Sn1 Ge3 I3 Br3 Cl6'
_cell_volume   751.19529916
_cell_formula_units_Z   1
loop_
 _symmetry_equiv_pos_site_id
 _symmetry_equiv_pos_as_xyz
  1  'x, y, z'
loop_
 _atom_site_type_symbol
 _atom_site_label
 _atom_site_symmetry_multiplicity
 _atom_site_fract_x
 _atom_site_fract_y
 _atom_site_fract_z
 _atom_site_occupancy
  Cs  Cs0  1  -0.01270913  0.00916959  0.03541081  1
  Rb  Rb1  1  0.04749300  0.02146509  0.50087829  1
  Rb  Rb2  1  0.48242480  -0.00168892  0.03512154  1
  Na  Na3  1  0.50778998  0.09944176  0.58891935  1
  Ge  Ge4  1  0.25771944  0.53037310  0.22964507  1
  Sn  Sn5  1  0.24922333  0.50541815  0.73196231  1
  Ge  Ge6  1  0.73921736  0.54607376  0.25414799  1
  Ge  Ge7  1  0.78251814  0.51647118  0.75788858  1
  Br  Br8  1  0.19720118  0.50706952  0.00453487  1
  Br  Br9  1  0.30478252  0.43704208  0.49450813  1
  Cl  Cl10  1  0.82549480  0.51109947  -0.03346886  1
  I  I11  1  0.65871414  0.56060584  0.48576579  1
  Br  Br12  1  -0.03330014  0.52406446  0.29984413  1
  Cl  Cl13  1  0.01186361  0.52491580  0.66851088  1
  Cl  Cl14  1  0.46667098  0.50315487  0.18317557  1
  I  I15  1  0.52224571  0.48702942  0.81230234  1
  Cl  Cl16  1  0.24852186  -0.05439243  0.23893978  1
  Cl  Cl17  1  0.27884078  -0.02885819  0.71629144  1
  Cl  Cl18  1  0.72949073  -0.04495684  0.22062806  1
  I  I19  1  0.78015082  0.02231773  0.72287818  1
