# generated using pymatgen
data_Cs2KRbSn4(ICl3)3
_symmetry_space_group_name_H-M   'P 1'
_cell_length_a   11.21981175
_cell_length_b   5.82441338
_cell_length_c   11.90668292
_cell_angle_alpha   90.00000000
_cell_angle_beta   90.00000000
_cell_angle_gamma   90.00000000
_symmetry_Int_Tables_number   1
_chemical_formula_structural   Cs2KRbSn4(ICl3)3
_chemical_formula_sum   'Cs2 K1 Rb1 Sn4 I3 Cl9'
_cell_volume   778.08769929
_cell_formula_units_Z   1
loop_
 _symmetry_equiv_pos_site_id
 _symmetry_equiv_pos_as_xyz
  1  'x, y, z'
loop_
 _atom_site_type_symbol
 _atom_site_label
 _atom_site_symmetry_multiplicity
 _atom_site_fract_x
 _atom_site_fract_y
 _atom_site_fract_z
 _atom_site_occupancy
  K  K0  1  -0.02036669  0.00000970  0.06943245  1
  Rb  Rb1  1  -0.02091813  0.00000462  0.53752413  1
  Cs  Cs2  1  0.51227038  -0.00000107  -0.01575598  1
  Cs  Cs3  1  0.49499819  0.00001381  0.52604410  1
  Sn  Sn4  1  0.25039723  0.49997046  0.24418497  1
  Sn  Sn5  1  0.25474490  0.50030776  0.72123096  1
  Sn  Sn6  1  0.74453346  0.50005892  0.23054205  1
  Sn  Sn7  1  0.76228537  0.49975143  0.76407364  1
  I  I8  1  0.18272839  0.49999858  -0.00799502  1
  Cl  Cl9  1  0.31755192  0.50000954  0.49959070  1
  Cl  Cl10  1  0.79985865  0.49998330  0.00133617  1
  I  I11  1  0.72415668  0.50000946  0.50000150  1
  Cl  Cl12  1  -0.01426404  0.50001102  0.26537585  1
  Cl  Cl13  1  0.02163693  0.50000203  0.67048478  1
  Cl  Cl14  1  0.48910099  0.50000580  0.17615311  1
  Cl  Cl15  1  0.52406296  0.49999279  0.79247820  1
  I  I16  1  0.20773420  0.00003297  0.30618439  1
  Cl  Cl17  1  0.25427830  -0.00038053  0.72220217  1
  Cl  Cl18  1  0.74019732  -0.00007805  0.21929911  1
  Cl  Cl19  1  0.76155076  0.00031656  0.75971520  1
