# generated using pymatgen
data_Cs2Rb2SnGe3I3(BrCl2)3
_symmetry_space_group_name_H-M   'P 1'
_cell_length_a   11.19600251
_cell_length_b   5.80746056
_cell_length_c   11.74667460
_cell_angle_alpha   90.00000000
_cell_angle_beta   90.00000000
_cell_angle_gamma   90.00000000
_symmetry_Int_Tables_number   1
_chemical_formula_structural   Cs2Rb2SnGe3I3(BrCl2)3
_chemical_formula_sum   'Cs2 Rb2 Sn1 Ge3 I3 Br3 Cl6'
_cell_volume   763.77281131
_cell_formula_units_Z   1
loop_
 _symmetry_equiv_pos_site_id
 _symmetry_equiv_pos_as_xyz
  1  'x, y, z'
loop_
 _atom_site_type_symbol
 _atom_site_label
 _atom_site_symmetry_multiplicity
 _atom_site_fract_x
 _atom_site_fract_y
 _atom_site_fract_z
 _atom_site_occupancy
  Rb  Rb0  1  -0.01528473  -0.00250161  -0.03987427  1
  Cs  Cs1  1  0.00318818  -0.01250806  0.49018395  1
  Cs  Cs2  1  0.47495979  -0.00032956  -0.01658712  1
  Rb  Rb3  1  0.51194716  0.00112808  0.43284416  1
  Ge  Ge4  1  0.22381859  0.45803930  0.24972619  1
  Sn  Sn5  1  0.25153175  0.48853976  0.76605524  1
  Ge  Ge6  1  0.75623143  0.46189604  0.25296400  1
  Ge  Ge7  1  0.74673658  0.49259804  0.76634735  1
  Br  Br8  1  0.18057606  0.49356165  0.01717346  1
  I  I9  1  0.29934195  0.50486176  0.50395861  1
  Cl  Cl10  1  0.79230371  0.49400313  -0.03260934  1
  Br  Br11  1  0.71659082  0.49273811  0.46834782  1
  Cl  Cl12  1  0.00660760  0.48192645  0.30141991  1
  Br  Br13  1  -0.01957766  0.49332649  0.70871566  1
  I  I14  1  0.50191347  0.50710223  0.20263397  1
  Cl  Cl15  1  0.48891866  0.49444301  0.81285929  1
  Cl  Cl16  1  0.23805092  0.04346602  0.25365096  1
  Cl  Cl17  1  0.23162537  0.01313828  0.77569988  1
  Cl  Cl18  1  0.75759409  0.04660352  0.24326527  1
  I  I19  1  0.72404094  -0.00752547  0.73027048  1
