# generated using pymatgen
data_K2RbNaSn2Ge2(IBr)6
_symmetry_space_group_name_H-M   'P 1'
_cell_length_a   11.75920856
_cell_length_b   6.09948339
_cell_length_c   11.33630475
_cell_angle_alpha   90.00000000
_cell_angle_beta   90.00000000
_cell_angle_gamma   90.00000000
_symmetry_Int_Tables_number   1
_chemical_formula_structural   K2RbNaSn2Ge2(IBr)6
_chemical_formula_sum   'K2 Rb1 Na1 Sn2 Ge2 I6 Br6'
_cell_volume   813.09756165
_cell_formula_units_Z   1
loop_
 _symmetry_equiv_pos_site_id
 _symmetry_equiv_pos_as_xyz
  1  'x, y, z'
loop_
 _atom_site_type_symbol
 _atom_site_label
 _atom_site_symmetry_multiplicity
 _atom_site_fract_x
 _atom_site_fract_y
 _atom_site_fract_z
 _atom_site_occupancy
  Na  Na0  1  -0.09492157  -0.10301358  0.00105717  1
  K  K1  1  0.00533037  -0.01553046  0.52453216  1
  Rb  Rb2  1  0.48006510  0.02427837  -0.00226375  1
  K  K3  1  0.47799323  -0.00747217  0.49937340  1
  Sn  Sn4  1  0.24854299  0.49780131  0.24595787  1
  Sn  Sn5  1  0.24809925  0.51783846  0.74693040  1
  Ge  Ge6  1  0.76717226  0.47908779  0.26921008  1
  Ge  Ge7  1  0.76556393  0.49023506  0.75177565  1
  Br  Br8  1  0.32750195  0.51948935  -0.00150794  1
  Br  Br9  1  0.17139202  0.49330063  0.50050771  1
  I  I10  1  0.69017481  0.54078814  -0.00710175  1
  Br  Br11  1  0.83360646  0.49296568  0.49185925  1
  I  I12  1  0.00193221  0.47635166  0.15125745  1
  Br  Br13  1  -0.01428048  0.58906176  0.79926816  1
  I  I14  1  0.51821126  0.49111030  0.31363803  1
  I  I15  1  0.50347720  0.49166713  0.68017172  1
  I  I16  1  0.25704353  -0.00370043  0.26984555  1
  Br  Br17  1  0.26420948  -0.01325889  0.73302028  1
  I  I18  1  0.77030684  0.00168354  0.25234487  1
  Br  Br19  1  0.78474896  0.07045672  0.76357255  1
