# generated using pymatgen
data_CsKRbNaSn3GeI3(BrCl2)3
_symmetry_space_group_name_H-M   'P 1'
_cell_length_a   11.10063111
_cell_length_b   6.07382589
_cell_length_c   11.48780563
_cell_angle_alpha   90.00000000
_cell_angle_beta   90.00000000
_cell_angle_gamma   90.00000000
_symmetry_Int_Tables_number   1
_chemical_formula_structural   CsKRbNaSn3GeI3(BrCl2)3
_chemical_formula_sum   'Cs1 K1 Rb1 Na1 Sn3 Ge1 I3 Br3 Cl6'
_cell_volume   774.54577328
_cell_formula_units_Z   1
loop_
 _symmetry_equiv_pos_site_id
 _symmetry_equiv_pos_as_xyz
  1  'x, y, z'
loop_
 _atom_site_type_symbol
 _atom_site_label
 _atom_site_symmetry_multiplicity
 _atom_site_fract_x
 _atom_site_fract_y
 _atom_site_fract_z
 _atom_site_occupancy
  K  K0  1  -0.00692807  0.01618792  0.03540102  1
  Rb  Rb1  1  -0.01643960  -0.00777839  0.50495628  1
  Cs  Cs2  1  0.52834992  0.00291087  0.01158904  1
  Na  Na3  1  0.44805171  0.08766692  0.53307453  1
  Sn  Sn4  1  0.24905213  0.53454549  0.22540415  1
  Sn  Sn5  1  0.23816785  0.53139078  0.76018968  1
  Ge  Ge6  1  0.74901702  0.51549749  0.23349320  1
  Sn  Sn7  1  0.76640475  0.45987082  0.76308576  1
  Cl  Cl8  1  0.15314620  0.52166637  -0.01052826  1
  I  I9  1  0.34050111  0.58508880  0.48853804  1
  Cl  Cl10  1  0.81605529  0.49610301  0.03097227  1
  I  I11  1  0.69793890  0.32497123  0.51756036  1
  Br  Br12  1  0.01801050  0.48052837  0.31516804  1
  Cl  Cl13  1  0.00308250  0.51255927  0.66646698  1
  Cl  Cl14  1  0.53266439  0.50544612  0.18347750  1
  Br  Br15  1  0.50328471  0.50303383  0.82229156  1
  Cl  Cl16  1  0.23715612  -0.02981692  0.20781728  1
  I  I17  1  0.24740383  0.03545701  0.73851893  1
  Br  Br18  1  0.76633866  -0.05826431  0.24769835  1
  Cl  Cl19  1  0.79901796  0.03867848  0.81283493  1
