# generated using pymatgen
data_Cs2Rb2Sn2Ge2(I3Cl)3
_symmetry_space_group_name_H-M   'P 1'
_cell_length_a   12.04922214
_cell_length_b   6.22936714
_cell_length_c   12.00506452
_cell_angle_alpha   90.00000000
_cell_angle_beta   90.00000000
_cell_angle_gamma   90.00000000
_symmetry_Int_Tables_number   1
_chemical_formula_structural   Cs2Rb2Sn2Ge2(I3Cl)3
_chemical_formula_sum   'Cs2 Rb2 Sn2 Ge2 I9 Cl3'
_cell_volume   901.08847939
_cell_formula_units_Z   1
loop_
 _symmetry_equiv_pos_site_id
 _symmetry_equiv_pos_as_xyz
  1  'x, y, z'
loop_
 _atom_site_type_symbol
 _atom_site_label
 _atom_site_symmetry_multiplicity
 _atom_site_fract_x
 _atom_site_fract_y
 _atom_site_fract_z
 _atom_site_occupancy
  Cs  Cs0  1  0.02801289  -0.00252644  -0.02995882  1
  Rb  Rb1  1  -0.00709339  -0.02375254  0.54444782  1
  Cs  Cs2  1  0.49574377  -0.01059445  0.03131312  1
  Rb  Rb3  1  0.50922667  0.03220322  0.49497768  1
  Sn  Sn4  1  0.23938691  0.50122728  0.24948073  1
  Ge  Ge5  1  0.25943149  0.55402136  0.73685690  1
  Sn  Sn6  1  0.74947963  0.50079381  0.25140902  1
  Ge  Ge7  1  0.78617538  0.54713315  0.76084052  1
  I  I8  1  0.29322003  0.49100901  -0.01393086  1
  I  I9  1  0.17247268  0.47972478  0.50338538  1
  I  I10  1  0.68847771  0.49173580  -0.00030774  1
  I  I11  1  0.80413067  0.47524362  0.51712878  1
  I  I12  1  -0.00652572  0.49990381  0.16833598  1
  Cl  Cl13  1  -0.01877070  0.49268193  0.79991368  1
  I  I14  1  0.49271296  0.51713115  0.31435260  1
  I  I15  1  0.48745042  0.55179366  0.68792425  1
  I  I16  1  0.24434840  0.00091085  0.25078591  1
  Cl  Cl17  1  0.23167849  -0.06337826  0.73697974  1
  I  I18  1  0.74125064  -0.00030871  0.26711398  1
  Cl  Cl19  1  0.79914503  -0.06683899  0.75689946  1
