# generated using pymatgen
data_Cs3KSnGe3I6(BrCl)3
_symmetry_space_group_name_H-M   'P 1'
_cell_length_a   11.68239293
_cell_length_b   5.92255159
_cell_length_c   11.99798189
_cell_angle_alpha   90.00000000
_cell_angle_beta   90.00000000
_cell_angle_gamma   90.00000000
_symmetry_Int_Tables_number   1
_chemical_formula_structural   Cs3KSnGe3I6(BrCl)3
_chemical_formula_sum   'Cs3 K1 Sn1 Ge3 I6 Br3 Cl3'
_cell_volume   830.13526585
_cell_formula_units_Z   1
loop_
 _symmetry_equiv_pos_site_id
 _symmetry_equiv_pos_as_xyz
  1  'x, y, z'
loop_
 _atom_site_type_symbol
 _atom_site_label
 _atom_site_symmetry_multiplicity
 _atom_site_fract_x
 _atom_site_fract_y
 _atom_site_fract_z
 _atom_site_occupancy
  Cs  Cs0  1  0.01140320  0.00671263  -0.00555425  1
  K  K1  1  -0.00491466  0.00159980  0.54607022  1
  Cs  Cs2  1  0.51567371  -0.00842534  0.00372764  1
  Cs  Cs3  1  0.51225022  0.00090003  0.47751246  1
  Ge  Ge4  1  0.28230163  0.54566542  0.25818315  1
  Sn  Sn5  1  0.23870386  0.50395368  0.74967421  1
  Ge  Ge6  1  0.76409994  0.53221476  0.25383915  1
  Ge  Ge7  1  0.74774289  0.50047265  0.77925161  1
  I  I8  1  0.29262994  0.48951938  0.01104636  1
  I  I9  1  0.18376323  0.50083499  0.49715827  1
  Cl  Cl10  1  0.70668997  0.49553601  -0.02290546  1
  I  I11  1  0.79116094  0.50837790  0.48788724  1
  I  I12  1  -0.00367506  0.50710302  0.20355898  1
  Br  Br13  1  -0.01768008  0.50555102  0.79794569  1
  Cl  Cl14  1  0.48724248  0.49942549  0.29625560  1
  I  I15  1  0.49685133  0.50270138  0.70123198  1
  Cl  Cl16  1  0.28776112  -0.05041030  0.25382109  1
  Br  Br17  1  0.22420038  0.00363183  0.74808738  1
  Br  Br18  1  0.74409982  -0.03411277  0.23795452  1
  I  I19  1  0.75151996  0.00308558  0.75100434  1
