# generated using pymatgen
data_KRb2NaSnGe3(BrCl)6
_symmetry_space_group_name_H-M   'P 1'
_cell_length_a   11.04118197
_cell_length_b   5.66441676
_cell_length_c   11.07173008
_cell_angle_alpha   90.00000000
_cell_angle_beta   90.00000000
_cell_angle_gamma   90.00000000
_symmetry_Int_Tables_number   1
_chemical_formula_structural   KRb2NaSnGe3(BrCl)6
_chemical_formula_sum   'Rb2 K1 Na1 Sn1 Ge3 Br6 Cl6'
_cell_volume   692.44655077
_cell_formula_units_Z   1
loop_
 _symmetry_equiv_pos_site_id
 _symmetry_equiv_pos_as_xyz
  1  'x, y, z'
loop_
 _atom_site_type_symbol
 _atom_site_label
 _atom_site_symmetry_multiplicity
 _atom_site_fract_x
 _atom_site_fract_y
 _atom_site_fract_z
 _atom_site_occupancy
  Rb  Rb0  1  0.01094475  -0.01119077  -0.00672318  1
  K  K1  1  0.00501955  0.01470521  0.54292122  1
  Rb  Rb2  1  0.49195945  -0.00175645  -0.04877433  1
  Na  Na3  1  0.48824457  0.00512806  0.40213917  1
  Ge  Ge4  1  0.22925448  0.48690664  0.22395236  1
  Ge  Ge5  1  0.24481904  0.52681337  0.74035806  1
  Ge  Ge6  1  0.73211518  0.48605217  0.24181051  1
  Sn  Sn7  1  0.76183758  0.50239734  0.75417419  1
  Cl  Cl8  1  0.29830445  0.48975665  0.01463382  1
  Br  Br9  1  0.19055734  0.51560590  0.51199550  1
  Cl  Cl10  1  0.67128838  0.49559428  0.02775670  1
  Br  Br11  1  0.82783139  0.51377677  0.51012387  1
  Cl  Cl12  1  0.01248249  0.48603917  0.17773251  1
  Cl  Cl13  1  -0.00248353  0.48751083  0.81942275  1
  Br  Br14  1  0.50709346  0.50562824  0.32509556  1
  Br  Br15  1  0.48446926  0.51954925  0.70576746  1
  Br  Br16  1  0.25208728  0.01216909  0.24944726  1
  Cl  Cl17  1  0.23041925  -0.04190156  0.76134705  1
  Br  Br18  1  0.73428048  0.02166889  0.25693785  1
  Cl  Cl19  1  0.77609782  -0.00633397  0.77472067  1
