# generated using pymatgen
data_CsRb2NaSn3Ge(BrCl3)3
_symmetry_space_group_name_H-M   'P 1'
_cell_length_a   11.00677174
_cell_length_b   5.75661865
_cell_length_c   11.28550747
_cell_angle_alpha   90.00000000
_cell_angle_beta   90.00000000
_cell_angle_gamma   90.00000000
_symmetry_Int_Tables_number   1
_chemical_formula_structural   CsRb2NaSn3Ge(BrCl3)3
_chemical_formula_sum   'Cs1 Rb2 Na1 Sn3 Ge1 Br3 Cl9'
_cell_volume   715.06992615
_cell_formula_units_Z   1
loop_
 _symmetry_equiv_pos_site_id
 _symmetry_equiv_pos_as_xyz
  1  'x, y, z'
loop_
 _atom_site_type_symbol
 _atom_site_label
 _atom_site_symmetry_multiplicity
 _atom_site_fract_x
 _atom_site_fract_y
 _atom_site_fract_z
 _atom_site_occupancy
  Rb  Rb0  1  -0.03117155  -0.00844980  0.00375573  1
  Na  Na1  1  0.10343200  -0.02706975  0.47458780  1
  Cs  Cs2  1  0.50582705  0.02063555  0.03149842  1
  Rb  Rb3  1  0.56064526  -0.00131539  0.51549035  1
  Ge  Ge4  1  0.24144376  0.52337237  0.22553803  1
  Sn  Sn5  1  0.24488419  0.48991086  0.74369011  1
  Sn  Sn6  1  0.75105765  0.50930781  0.26459575  1
  Sn  Sn7  1  0.74937656  0.50464521  0.77001606  1
  Cl  Cl8  1  0.30713863  0.52948445  0.01345274  1
  Br  Br9  1  0.17604770  0.47493544  0.49597860  1
  Cl  Cl10  1  0.69874821  0.51750705  0.01860480  1
  Br  Br11  1  0.81143548  0.52629132  0.51830144  1
  Cl  Cl12  1  0.02665067  0.49282131  0.17643036  1
  Cl  Cl13  1  -0.00815566  0.49519097  0.83115514  1
  Cl  Cl14  1  0.51637005  0.50476198  0.31483766  1
  Cl  Cl15  1  0.49073487  0.49395415  0.68871220  1
  Cl  Cl16  1  0.23305496  -0.05197798  0.25019649  1
  Br  Br17  1  0.23641774  -0.01664520  0.71734577  1
  Cl  Cl18  1  0.75133817  0.00560839  0.25487761  1
  Cl  Cl19  1  0.73642789  0.00665349  0.78345233  1
