# generated using pymatgen
data_CsRb2NaSn2Ge2I3(BrCl2)3
_symmetry_space_group_name_H-M   'P 1'
_cell_length_a   11.31977578
_cell_length_b   5.88717320
_cell_length_c   11.60864919
_cell_angle_alpha   90.00000000
_cell_angle_beta   90.00000000
_cell_angle_gamma   90.00000000
_symmetry_Int_Tables_number   1
_chemical_formula_structural   CsRb2NaSn2Ge2I3(BrCl2)3
_chemical_formula_sum   'Cs1 Rb2 Na1 Sn2 Ge2 I3 Br3 Cl6'
_cell_volume   773.61756919
_cell_formula_units_Z   1
loop_
 _symmetry_equiv_pos_site_id
 _symmetry_equiv_pos_as_xyz
  1  'x, y, z'
loop_
 _atom_site_type_symbol
 _atom_site_label
 _atom_site_symmetry_multiplicity
 _atom_site_fract_x
 _atom_site_fract_y
 _atom_site_fract_z
 _atom_site_occupancy
  Cs  Cs0  1  -0.03574896  -0.01664754  0.04055447  1
  Rb  Rb1  1  0.01777239  -0.00391687  0.56551435  1
  Na  Na2  1  0.47659596  -0.11355218  0.09969868  1
  Rb  Rb3  1  0.53190116  0.00015129  0.50842707  1
  Ge  Ge4  1  0.22787199  0.50041783  0.25595996  1
  Sn  Sn5  1  0.28517963  0.47427607  0.74890985  1
  Ge  Ge6  1  0.71869101  0.51916995  0.24173059  1
  Sn  Sn7  1  0.73565951  0.49782136  0.75865855  1
  I  I8  1  0.35537669  0.40000577  0.00340693  1
  Br  Br9  1  0.19328982  0.50022810  0.48629360  1
  Cl  Cl10  1  0.69018475  0.61518598  0.03530200  1
  I  I11  1  0.81357642  0.49728916  0.50935434  1
  Cl  Cl12  1  0.02045685  0.48182486  0.20708565  1
  I  I13  1  0.00872773  0.48514950  0.82065256  1
  Cl  Cl14  1  0.51635609  0.59324079  0.29902560  1
  Cl  Cl15  1  0.51005807  0.49445387  0.65140939  1
  Cl  Cl16  1  0.24466423  -0.09239068  0.22672328  1
  Br  Br17  1  0.28505719  -0.00730018  0.71799745  1
  Cl  Cl18  1  0.68953576  0.11353250  0.22657305  1
  Br  Br19  1  0.74782703  -0.00719903  0.75069514  1
