# generated using pymatgen
data_CsNaSnGe(BrCl)3
_symmetry_space_group_name_H-M   'P 1'
_cell_length_a   11.26214832
_cell_length_b   5.91112587
_cell_length_c   11.32825814
_cell_angle_alpha   90.00000000
_cell_angle_beta   90.00000000
_cell_angle_gamma   90.00000000
_symmetry_Int_Tables_number   1
_chemical_formula_structural   CsNaSnGe(BrCl)3
_chemical_formula_sum   'Cs2 Na2 Sn2 Ge2 Br6 Cl6'
_cell_volume   754.14453255
_cell_formula_units_Z   2
loop_
 _symmetry_equiv_pos_site_id
 _symmetry_equiv_pos_as_xyz
  1  'x, y, z'
loop_
 _atom_site_type_symbol
 _atom_site_label
 _atom_site_symmetry_multiplicity
 _atom_site_fract_x
 _atom_site_fract_y
 _atom_site_fract_z
 _atom_site_occupancy
  Na  Na0  1  0.04522437  0.17486039  0.05208181  1
  Cs  Cs1  1  0.01595163  -0.01083364  0.54460065  1
  Na  Na2  1  0.62687189  0.03654271  -0.00166329  1
  Cs  Cs3  1  0.46555628  -0.03598059  0.49849478  1
  Ge  Ge4  1  0.26404254  0.45098836  0.24696450  1
  Sn  Sn5  1  0.25603225  0.46329805  0.75676358  1
  Ge  Ge6  1  0.78226605  0.49550623  0.22568898  1
  Sn  Sn7  1  0.73362770  0.49618614  0.73587280  1
  Cl  Cl8  1  0.27610012  0.39620170  0.03551597  1
  Cl  Cl9  1  0.20441998  0.49471714  0.52943670  1
  Br  Br10  1  0.65031099  0.53290564  -0.02669424  1
  Br  Br11  1  0.81221693  0.47671566  0.45793494  1
  Cl  Cl12  1  -0.01442947  0.57092882  0.17626555  1
  Br  Br13  1  0.00223337  0.42239943  0.81406125  1
  Br  Br14  1  0.48980625  0.43750228  0.28338834  1
  Cl  Cl15  1  0.50551947  0.47411490  0.66615831  1
  Br  Br16  1  0.21027398  0.02513872  0.27355928  1
  Cl  Cl17  1  0.26419135  0.01275528  0.74371112  1
  Cl  Cl18  1  0.80137732  0.09181686  0.17722603  1
  Br  Br19  1  0.72434034  0.00727384  0.74776661  1
