# generated using pymatgen
data_Rb3NaSn3Ge(IBr3)3
_symmetry_space_group_name_H-M   'P 1'
_cell_length_a   11.78595171
_cell_length_b   5.93379040
_cell_length_c   11.39318976
_cell_angle_alpha   90.00000000
_cell_angle_beta   90.00000000
_cell_angle_gamma   90.00000000
_symmetry_Int_Tables_number   1
_chemical_formula_structural   Rb3NaSn3Ge(IBr3)3
_chemical_formula_sum   'Rb3 Na1 Sn3 Ge1 I3 Br9'
_cell_volume   796.78690865
_cell_formula_units_Z   1
loop_
 _symmetry_equiv_pos_site_id
 _symmetry_equiv_pos_as_xyz
  1  'x, y, z'
loop_
 _atom_site_type_symbol
 _atom_site_label
 _atom_site_symmetry_multiplicity
 _atom_site_fract_x
 _atom_site_fract_y
 _atom_site_fract_z
 _atom_site_occupancy
  Rb  Rb0  1  -0.00298940  0.00682002  -0.00398350  1
  Rb  Rb1  1  0.04446122  0.00640829  0.47673343  1
  Na  Na2  1  0.57619223  -0.00269882  0.01391264  1
  Rb  Rb3  1  0.49738891  0.00622368  0.53154986  1
  Sn  Sn4  1  0.25187469  0.50545818  0.22894319  1
  Sn  Sn5  1  0.25378079  0.50656843  0.74170213  1
  Ge  Ge6  1  0.75746010  0.50598129  0.26492868  1
  Sn  Sn7  1  0.74054301  0.50586548  0.75989303  1
  Br  Br8  1  0.16686148  0.50654447  -0.01084234  1
  Br  Br9  1  0.31618249  0.50689754  0.48835473  1
  Br  Br10  1  0.81219555  0.50735861  -0.00179332  1
  Br  Br11  1  0.68043208  0.50650264  0.48544751  1
  Br  Br12  1  -0.01735529  0.50671618  0.30517594  1
  I  I13  1  -0.00509183  0.50701995  0.67204503  1
  I  I14  1  0.50280589  0.50313472  0.15438700  1
  Br  Br15  1  0.49681448  0.50755125  0.80506438  1
  Br  Br16  1  0.23539922  0.00471581  0.23570975  1
  Br  Br17  1  0.24685390  0.00761101  0.72805182  1
  I  I18  1  0.74928935  0.00608475  0.23949028  1
  Br  Br19  1  0.72047831  0.00615276  0.78570600  1
