# generated using pymatgen
data_K3NaSn3Ge(Br3Cl)3
_symmetry_space_group_name_H-M   'P 1'
_cell_length_a   11.46322299
_cell_length_b   5.74082526
_cell_length_c   11.28575250
_cell_angle_alpha   90.00000000
_cell_angle_beta   90.00000000
_cell_angle_gamma   90.00000000
_symmetry_Int_Tables_number   1
_chemical_formula_structural   K3NaSn3Ge(Br3Cl)3
_chemical_formula_sum   'K3 Na1 Sn3 Ge1 Br9 Cl3'
_cell_volume   742.69686484
_cell_formula_units_Z   1
loop_
 _symmetry_equiv_pos_site_id
 _symmetry_equiv_pos_as_xyz
  1  'x, y, z'
loop_
 _atom_site_type_symbol
 _atom_site_label
 _atom_site_symmetry_multiplicity
 _atom_site_fract_x
 _atom_site_fract_y
 _atom_site_fract_z
 _atom_site_occupancy
  Na  Na0  1  -0.00631232  0.00982234  0.09259535  1
  K  K1  1  -0.00647001  0.00291533  0.57310855  1
  K  K2  1  0.45625446  0.00573404  -0.00317396  1
  K  K3  1  0.56524980  -0.00832304  0.50019442  1
  Sn  Sn4  1  0.23409292  0.50023399  0.22589254  1
  Sn  Sn5  1  0.24488004  0.50059138  0.73707654  1
  Ge  Ge6  1  0.72086047  0.47892574  0.22856375  1
  Sn  Sn7  1  0.74625913  0.49806151  0.73917933  1
  Cl  Cl8  1  0.31273820  0.50675876  -0.00652246  1
  Br  Br9  1  0.16325219  0.50228121  0.48981105  1
  Br  Br10  1  0.65473828  0.49331853  0.00662096  1
  Br  Br11  1  0.80630929  0.50720784  0.49530950  1
  Br  Br12  1  -0.00760079  0.50924317  0.15816135  1
  Br  Br13  1  -0.00387464  0.49272700  0.80183399  1
  Br  Br14  1  0.50417685  0.47833741  0.30846468  1
  Br  Br15  1  0.49807990  0.49501395  0.66521446  1
  Cl  Cl16  1  0.22161334  0.01294310  0.19621186  1
  Br  Br17  1  0.25728755  0.00121769  0.74660298  1
  Br  Br18  1  0.74909526  0.02113737  0.23230080  1
  Cl  Cl19  1  0.74563003  0.00432719  0.72433164  1
