# generated using pymatgen
data_CsK2RbSn2Ge2(ICl3)3
_symmetry_space_group_name_H-M   'P 1'
_cell_length_a   11.52677464
_cell_length_b   5.76944308
_cell_length_c   10.95812863
_cell_angle_alpha   90.00000000
_cell_angle_beta   90.00000000
_cell_angle_gamma   90.00000000
_symmetry_Int_Tables_number   1
_chemical_formula_structural   CsK2RbSn2Ge2(ICl3)3
_chemical_formula_sum   'Cs1 K2 Rb1 Sn2 Ge2 I3 Cl9'
_cell_volume   728.74919842
_cell_formula_units_Z   1
loop_
 _symmetry_equiv_pos_site_id
 _symmetry_equiv_pos_as_xyz
  1  'x, y, z'
loop_
 _atom_site_type_symbol
 _atom_site_label
 _atom_site_symmetry_multiplicity
 _atom_site_fract_x
 _atom_site_fract_y
 _atom_site_fract_z
 _atom_site_occupancy
  K  K0  1  -0.00765984  0.00219126  -0.00472338  1
  Cs  Cs1  1  0.00129697  -0.00381676  0.48842233  1
  Rb  Rb2  1  0.51907601  0.01559056  0.02081021  1
  K  K3  1  0.41495928  -0.01353345  0.50822848  1
  Ge  Ge4  1  0.24154634  0.53203562  0.22614294  1
  Sn  Sn5  1  0.23179942  0.50089858  0.74968080  1
  Sn  Sn6  1  0.76340000  0.49739675  0.23817226  1
  Ge  Ge7  1  0.77275790  0.49843003  0.74152023  1
  Cl  Cl8  1  0.31727420  0.53171574  0.01700527  1
  Cl  Cl9  1  0.19838671  0.49467599  0.50669201  1
  Cl  Cl10  1  0.68971623  0.51094297  0.01120718  1
  Cl  Cl11  1  0.82416394  0.49720829  0.52271902  1
  Cl  Cl12  1  0.02999513  0.51606599  0.16626564  1
  Cl  Cl13  1  -0.01862718  0.49794744  0.81709404  1
  I  I14  1  0.50956645  0.47699192  0.31566933  1
  I  I15  1  0.49403665  0.49155487  0.70435576  1
  Cl  Cl16  1  0.24685161  -0.04657606  0.24818641  1
  Cl  Cl17  1  0.22070710  -0.01171230  0.74279444  1
  Cl  Cl18  1  0.78673529  0.02331811  0.21783871  1
  I  I19  1  0.75559251  -0.00099656  0.76526118  1
