# generated using pymatgen
data_Cs2Na2Sn3GeI3(BrCl2)3
_symmetry_space_group_name_H-M   'P 1'
_cell_length_a   11.75189291
_cell_length_b   5.66138895
_cell_length_c   12.11679834
_cell_angle_alpha   90.00000000
_cell_angle_beta   90.00000000
_cell_angle_gamma   90.00000000
_symmetry_Int_Tables_number   1
_chemical_formula_structural   Cs2Na2Sn3GeI3(BrCl2)3
_chemical_formula_sum   'Cs2 Na2 Sn3 Ge1 I3 Br3 Cl6'
_cell_volume   806.15527126
_cell_formula_units_Z   1
loop_
 _symmetry_equiv_pos_site_id
 _symmetry_equiv_pos_as_xyz
  1  'x, y, z'
loop_
 _atom_site_type_symbol
 _atom_site_label
 _atom_site_symmetry_multiplicity
 _atom_site_fract_x
 _atom_site_fract_y
 _atom_site_fract_z
 _atom_site_occupancy
  Cs  Cs0  1  0.08782982  0.00064999  0.01203918  1
  Na  Na1  1  -0.06648946  -0.00094088  0.64322621  1
  Na  Na2  1  0.55247513  -0.00449058  0.11875413  1
  Cs  Cs3  1  0.47734847  -0.00250268  0.49170658  1
  Ge  Ge4  1  0.27445261  0.50200138  0.24771802  1
  Sn  Sn5  1  0.21362055  0.49969119  0.73213592  1
  Sn  Sn6  1  0.76850384  0.49721681  0.26658623  1
  Sn  Sn7  1  0.69775263  0.49850781  0.76037923  1
  Cl  Cl8  1  0.26463799  0.49966431  -0.06146339  1
  Cl  Cl9  1  0.25840542  0.50659981  0.44120473  1
  I  I10  1  0.63739662  0.49643835  0.01660266  1
  I  I11  1  0.83965067  0.49941355  0.51740582  1
  Br  Br12  1  0.05834538  0.50126035  0.21010948  1
  I  I13  1  -0.04404855  0.50084429  0.83177433  1
  Cl  Cl14  1  0.55276251  0.49548016  0.32049789  1
  Br  Br15  1  0.45979114  0.49829134  0.68786065  1
  Br  Br16  1  0.32120538  -0.00930356  0.21674253  1
  Cl  Cl17  1  0.16664106  0.00106567  0.71089409  1
  Cl  Cl18  1  0.74635504  -0.00491540  0.25277373  1
  Cl  Cl19  1  0.71208846  -0.00070484  0.73259654  1
