# generated using pymatgen
data_Cs2KNaSnGe3I3(BrCl2)3
_symmetry_space_group_name_H-M   'P 1'
_cell_length_a   11.11147087
_cell_length_b   5.85685018
_cell_length_c   11.41144324
_cell_angle_alpha   90.00000000
_cell_angle_beta   90.00000000
_cell_angle_gamma   90.00000000
_symmetry_Int_Tables_number   1
_chemical_formula_structural   Cs2KNaSnGe3I3(BrCl2)3
_chemical_formula_sum   'Cs2 K1 Na1 Sn1 Ge3 I3 Br3 Cl6'
_cell_volume   742.63641541
_cell_formula_units_Z   1
loop_
 _symmetry_equiv_pos_site_id
 _symmetry_equiv_pos_as_xyz
  1  'x, y, z'
loop_
 _atom_site_type_symbol
 _atom_site_label
 _atom_site_symmetry_multiplicity
 _atom_site_fract_x
 _atom_site_fract_y
 _atom_site_fract_z
 _atom_site_occupancy
  K  K0  1  -0.00153766  -0.00057586  0.00738662  1
  Na  Na1  1  -0.03289132  -0.07179109  0.58398243  1
  Cs  Cs2  1  0.50132807  0.00742220  -0.00951578  1
  Cs  Cs3  1  0.46308930  0.02871287  0.47461494  1
  Ge  Ge4  1  0.25913083  0.55803398  0.23807441  1
  Ge  Ge5  1  0.26492031  0.51837572  0.76041890  1
  Sn  Sn6  1  0.75888098  0.50450265  0.24410300  1
  Ge  Ge7  1  0.77385560  0.52078060  0.78304866  1
  Cl  Cl8  1  0.30731626  0.51018950  -0.02903470  1
  I  I9  1  0.19384004  0.56469635  0.47877133  1
  Cl  Cl10  1  0.69699557  0.50866165  0.00008192  1
  I  I11  1  0.82558972  0.44077739  0.51822137  1
  Br  Br12  1  0.00040944  0.50080779  0.17030559  1
  Cl  Cl13  1  -0.01529481  0.49466395  0.83149021  1
  Cl  Cl14  1  0.48268195  0.52713713  0.28404353  1
  Br  Br15  1  0.49007079  0.51580476  0.70015789  1
  Cl  Cl16  1  0.25951813  -0.03249921  0.21125569  1
  I  I17  1  0.21386788  0.01834026  0.74902052  1
  Br  Br18  1  0.74643907  0.00685266  0.23508765  1
  Cl  Cl19  1  0.78441473  -0.06078616  0.76913602  1
