# generated using pymatgen
data_CsKRbNaSnGe3I6(BrCl)3
_symmetry_space_group_name_H-M   'P 1'
_cell_length_a   11.53723112
_cell_length_b   5.90021133
_cell_length_c   11.65731844
_cell_angle_alpha   90.00000000
_cell_angle_beta   90.00000000
_cell_angle_gamma   90.00000000
_symmetry_Int_Tables_number   1
_chemical_formula_structural   CsKRbNaSnGe3I6(BrCl)3
_chemical_formula_sum   'Cs1 Rb1 K1 Na1 Sn1 Ge3 I6 Br3 Cl3'
_cell_volume   793.53816653
_cell_formula_units_Z   1
loop_
 _symmetry_equiv_pos_site_id
 _symmetry_equiv_pos_as_xyz
  1  'x, y, z'
loop_
 _atom_site_type_symbol
 _atom_site_label
 _atom_site_symmetry_multiplicity
 _atom_site_fract_x
 _atom_site_fract_y
 _atom_site_fract_z
 _atom_site_occupancy
  Rb  Rb0  1  -0.01762263  0.00072134  -0.02822759  1
  Cs  Cs1  1  -0.03569870  -0.00444372  0.47996925  1
  Na  Na2  1  0.42889898  -0.00469687  0.05049105  1
  K  K3  1  0.51914339  -0.01182124  0.58424967  1
  Ge  Ge4  1  0.20868275  0.49972346  0.23805940  1
  Ge  Ge5  1  0.26807775  0.50170225  0.74872152  1
  Sn  Sn6  1  0.74396085  0.50034095  0.21987666  1
  Ge  Ge7  1  0.74156491  0.54254797  0.75103524  1
  Br  Br8  1  0.16214195  0.50087717  0.02082835  1
  I  I9  1  0.32712262  0.49541296  0.51570125  1
  Br  Br10  1  0.80967816  0.50126844  -0.02214289  1
  I  I11  1  0.70209688  0.48583289  0.49091308  1
  Cl  Cl12  1  0.00325365  0.49773207  0.30263896  1
  I  I13  1  0.02849963  0.49170751  0.70442836  1
  I  I14  1  0.48559935  0.49636960  0.15194270  1
  Cl  Cl15  1  0.53622033  0.54724118  0.78759132  1
  I  I16  1  0.23760065  -0.00160178  0.25503167  1
  I  I17  1  0.29027237  0.00849348  0.80350266  1
  Br  Br18  1  0.76498118  -0.00107795  0.21608293  1
  Cl  Cl19  1  0.76384851  -0.04735620  0.73720203  1
