# generated using pymatgen
data_K2Rb2Sn3GeI3(Br2Cl)3
_symmetry_space_group_name_H-M   'P 1'
_cell_length_a   11.83338307
_cell_length_b   5.79027467
_cell_length_c   11.73838337
_cell_angle_alpha   90.00000000
_cell_angle_beta   90.00000000
_cell_angle_gamma   90.00000000
_symmetry_Int_Tables_number   1
_chemical_formula_structural   K2Rb2Sn3GeI3(Br2Cl)3
_chemical_formula_sum   'Rb2 K2 Sn3 Ge1 I3 Br6 Cl3'
_cell_volume   804.29687021
_cell_formula_units_Z   1
loop_
 _symmetry_equiv_pos_site_id
 _symmetry_equiv_pos_as_xyz
  1  'x, y, z'
loop_
 _atom_site_type_symbol
 _atom_site_label
 _atom_site_symmetry_multiplicity
 _atom_site_fract_x
 _atom_site_fract_y
 _atom_site_fract_z
 _atom_site_occupancy
  Rb  Rb0  1  0.05684235  -0.01209138  0.01717328  1
  Rb  Rb1  1  -0.00677359  0.01765682  0.46506048  1
  K  K2  1  0.45848178  -0.01592282  0.05020919  1
  K  K3  1  0.56750710  -0.00247234  0.47861483  1
  Ge  Ge4  1  0.24791953  0.53061087  0.27741335  1
  Sn  Sn5  1  0.26379055  0.49252644  0.78396259  1
  Sn  Sn6  1  0.74965056  0.49422982  0.23801453  1
  Sn  Sn7  1  0.74755282  0.50089155  0.73335589  1
  Cl  Cl8  1  0.29709904  0.48583021  0.01076346  1
  Br  Br9  1  0.18594312  0.52470545  0.48939246  1
  I  I10  1  0.65033008  0.48633731  -0.01476663  1
  Br  Br11  1  0.81436201  0.51248176  0.48143555  1
  Br  Br12  1  -0.01742191  0.47887896  0.18928029  1
  I  I13  1  0.00541556  0.49103212  0.82106069  1
  Br  Br14  1  0.47127941  0.52661355  0.29903040  1
  I  I15  1  0.50153737  0.49574957  0.64595508  1
  Cl  Cl16  1  0.23434840  -0.05241917  0.25151230  1
  Br  Br17  1  0.28332859  -0.01003135  0.80757439  1
  Cl  Cl18  1  0.73332033  0.02131438  0.25568015  1
  Br  Br19  1  0.76629505  0.00583396  0.69970559  1
