# generated using pymatgen
data_CsKRbNaSn2Ge2I6(BrCl)3
_symmetry_space_group_name_H-M   'P 1'
_cell_length_a   11.75322560
_cell_length_b   5.96965350
_cell_length_c   11.75508912
_cell_angle_alpha   90.00000000
_cell_angle_beta   90.00000000
_cell_angle_gamma   90.00000000
_symmetry_Int_Tables_number   1
_chemical_formula_structural   CsKRbNaSn2Ge2I6(BrCl)3
_chemical_formula_sum   'Cs1 K1 Rb1 Na1 Sn2 Ge2 I6 Br3 Cl3'
_cell_volume   824.76860644
_cell_formula_units_Z   1
loop_
 _symmetry_equiv_pos_site_id
 _symmetry_equiv_pos_as_xyz
  1  'x, y, z'
loop_
 _atom_site_type_symbol
 _atom_site_label
 _atom_site_symmetry_multiplicity
 _atom_site_fract_x
 _atom_site_fract_y
 _atom_site_fract_z
 _atom_site_occupancy
  K  K0  1  -0.00673758  0.02814806  -0.02374006  1
  Cs  Cs1  1  -0.00981700  0.00916840  0.53445674  1
  Na  Na2  1  0.52427237  -0.10224864  0.05647683  1
  Rb  Rb3  1  0.49579396  -0.01752064  0.45392162  1
  Ge  Ge4  1  0.29799324  0.52768364  0.23236349  1
  Sn  Sn5  1  0.23749641  0.50376900  0.74572521  1
  Ge  Ge6  1  0.75786646  0.54316475  0.22133191  1
  Sn  Sn7  1  0.73549263  0.51114621  0.75700815  1
  I  I8  1  0.36234557  0.44494728  -0.00337255  1
  I  I9  1  0.19013158  0.51126841  0.48477486  1
  Cl  Cl10  1  0.68799451  0.52500221  0.02681439  1
  I  I11  1  0.78650754  0.50833637  0.50149709  1
  I  I12  1  -0.00531468  0.54670534  0.17158452  1
  Br  Br13  1  -0.01592035  0.50829338  0.80621035  1
  Cl  Cl14  1  0.49058902  0.47567519  0.30117282  1
  I  I15  1  0.48589202  0.49372008  0.65791843  1
  Cl  Cl16  1  0.32411315  -0.07052941  0.21671081  1
  Br  Br17  1  0.21392547  0.00503658  0.76351136  1
  Br  Br18  1  0.72256638  -0.02416863  0.23543502  1
  I  I19  1  0.71378086  0.01208219  0.82194288  1
