# generated using pymatgen
data_CsRbNa2Sn2Ge2(ICl)6
_symmetry_space_group_name_H-M   'P 1'
_cell_length_a   11.61773990
_cell_length_b   5.78077016
_cell_length_c   11.31209616
_cell_angle_alpha   90.00000000
_cell_angle_beta   90.00000000
_cell_angle_gamma   90.00000000
_symmetry_Int_Tables_number   1
_chemical_formula_structural   CsRbNa2Sn2Ge2(ICl)6
_chemical_formula_sum   'Cs1 Rb1 Na2 Sn2 Ge2 I6 Cl6'
_cell_volume   759.71454247
_cell_formula_units_Z   1
loop_
 _symmetry_equiv_pos_site_id
 _symmetry_equiv_pos_as_xyz
  1  'x, y, z'
loop_
 _atom_site_type_symbol
 _atom_site_label
 _atom_site_symmetry_multiplicity
 _atom_site_fract_x
 _atom_site_fract_y
 _atom_site_fract_z
 _atom_site_occupancy
  Rb  Rb0  1  -0.01753318  0.00000000  -0.00000003  1
  Na  Na1  1  0.01668132  0.00000000  0.49999991  1
  Cs  Cs2  1  0.53305796  -0.00000000  -0.00000001  1
  Na  Na3  1  0.39247236  0.00000000  0.50000011  1
  Ge  Ge4  1  0.24542442  0.50000000  0.26333309  1
  Ge  Ge5  1  0.24542433  0.50000000  0.73666683  1
  Sn  Sn6  1  0.77918391  0.50000000  0.23861404  1
  Sn  Sn7  1  0.77918394  0.50000000  0.76138602  1
  I  I8  1  0.29673480  0.50000000  0.00000066  1
  Cl  Cl9  1  0.21187005  0.50000000  0.49999964  1
  Cl  Cl10  1  0.70815308  0.50000000  -0.00000005  1
  I  I11  1  0.88356647  0.50000000  0.50000001  1
  Cl  Cl12  1  -0.00455320  0.50000000  0.17025779  1
  Cl  Cl13  1  -0.00455323  0.50000000  0.82974226  1
  I  I14  1  0.48542693  0.50000000  0.31245067  1
  I  I15  1  0.48542742  0.50000000  0.68754920  1
  I  I16  1  0.20580938  0.00000000  0.28054551  1
  I  I17  1  0.20580928  0.00000000  0.71945492  1
  Cl  Cl18  1  0.77740503  -0.00000000  0.22335990  1
  Cl  Cl19  1  0.77740497  -0.00000000  0.77664007  1
