# generated using pymatgen
data_Cs3RbGe4I3(BrCl2)3
_symmetry_space_group_name_H-M   'P 1'
_cell_length_a   11.62496704
_cell_length_b   5.80065686
_cell_length_c   11.22026763
_cell_angle_alpha   90.00000000
_cell_angle_beta   90.00000000
_cell_angle_gamma   90.00000000
_symmetry_Int_Tables_number   1
_chemical_formula_structural   Cs3RbGe4I3(BrCl2)3
_chemical_formula_sum   'Cs3 Rb1 Ge4 I3 Br3 Cl6'
_cell_volume   756.61007875
_cell_formula_units_Z   1
loop_
 _symmetry_equiv_pos_site_id
 _symmetry_equiv_pos_as_xyz
  1  'x, y, z'
loop_
 _atom_site_type_symbol
 _atom_site_label
 _atom_site_symmetry_multiplicity
 _atom_site_fract_x
 _atom_site_fract_y
 _atom_site_fract_z
 _atom_site_occupancy
  Cs  Cs0  1  -0.01647758  0.00034645  -0.00754650  1
  Cs  Cs1  1  -0.00366025  -0.00203373  0.50639681  1
  Rb  Rb2  1  0.47641028  0.00273607  0.01844699  1
  Cs  Cs3  1  0.50014372  0.00054774  0.49858694  1
  Ge  Ge4  1  0.26524004  0.53950578  0.23169380  1
  Ge  Ge5  1  0.22966866  0.50454652  0.73153465  1
  Ge  Ge6  1  0.75041158  0.53041622  0.22567055  1
  Ge  Ge7  1  0.75353555  0.53432411  0.73921278  1
  Cl  Cl8  1  0.26217498  0.51800465  0.01813369  1
  Cl  Cl9  1  0.24375234  0.50130270  0.51683297  1
  Cl  Cl10  1  0.76473452  0.50875563  0.01047312  1
  Br  Br11  1  0.74693601  0.49310900  0.50862046  1
  I  I12  1  0.00333251  0.49625997  0.25313497  1
  Cl  Cl13  1  0.01599955  0.49816618  0.74188524  1
  Br  Br14  1  0.50243588  0.49129494  0.24129677  1
  I  I15  1  0.51113267  0.50435205  0.76825345  1
  Cl  Cl16  1  0.26893834  -0.04322185  0.24331210  1
  I  I17  1  0.24901142  0.00563119  0.76141503  1
  Br  Br18  1  0.74017308  -0.02142270  0.23741509  1
  Cl  Cl19  1  0.76647230  -0.04981131  0.74170709  1
