# generated using pymatgen
data_KRbNa2SnGe3I6(BrCl)3
_symmetry_space_group_name_H-M   'P 1'
_cell_length_a   11.26035648
_cell_length_b   5.95533631
_cell_length_c   11.56380459
_cell_angle_alpha   90.00000000
_cell_angle_beta   90.00000000
_cell_angle_gamma   90.00000000
_symmetry_Int_Tables_number   1
_chemical_formula_structural   KRbNa2SnGe3I6(BrCl)3
_chemical_formula_sum   'Rb1 K1 Na2 Sn1 Ge3 I6 Br3 Cl3'
_cell_volume   775.45959768
_cell_formula_units_Z   1
loop_
 _symmetry_equiv_pos_site_id
 _symmetry_equiv_pos_as_xyz
  1  'x, y, z'
loop_
 _atom_site_type_symbol
 _atom_site_label
 _atom_site_symmetry_multiplicity
 _atom_site_fract_x
 _atom_site_fract_y
 _atom_site_fract_z
 _atom_site_occupancy
  Na  Na0  1  -0.00809385  0.12463697  -0.10906903  1
  Na  Na1  1  0.03666979  0.04171938  0.45019671  1
  Rb  Rb2  1  0.55148260  0.03112013  0.00919172  1
  K  K3  1  0.48213203  0.02370441  0.46165033  1
  Ge  Ge4  1  0.26935335  0.53164833  0.26458647  1
  Sn  Sn5  1  0.26968635  0.52952575  0.75470157  1
  Ge  Ge6  1  0.74573855  0.55962691  0.28589236  1
  Ge  Ge7  1  0.75552218  0.55514818  0.77503478  1
  I  I8  1  0.17024489  0.53493647  -0.00575721  1
  Cl  Cl9  1  0.32160607  0.52658988  0.47128935  1
  I  I10  1  0.80323214  0.46637131  0.02336943  1
  I  I11  1  0.66240836  0.52417356  0.52441373  1
  I  I12  1  -0.00414984  0.53977648  0.35323200  1
  Br  Br13  1  -0.02607857  0.48254376  0.70606604  1
  Br  Br14  1  0.49595364  0.52916637  0.19585961  1
  Cl  Cl15  1  0.49126791  0.55234587  0.83879204  1
  I  I16  1  0.24589964  0.03354932  0.25036234  1
  I  I17  1  0.21055254  0.01988118  0.68614445  1
  Br  Br18  1  0.73855378  -0.00729819  0.28055576  1
  Cl  Cl19  1  0.76895329  -0.03896926  0.79343885  1
