# generated using pymatgen
data_CsRb2NaSn3Ge(IBr)6
_symmetry_space_group_name_H-M   'P 1'
_cell_length_a   11.90347592
_cell_length_b   6.18939550
_cell_length_c   11.71273599
_cell_angle_alpha   90.00000000
_cell_angle_beta   90.00000000
_cell_angle_gamma   90.00000000
_symmetry_Int_Tables_number   1
_chemical_formula_structural   CsRb2NaSn3Ge(IBr)6
_chemical_formula_sum   'Cs1 Rb2 Na1 Sn3 Ge1 I6 Br6'
_cell_volume   862.93957576
_cell_formula_units_Z   1
loop_
 _symmetry_equiv_pos_site_id
 _symmetry_equiv_pos_as_xyz
  1  'x, y, z'
loop_
 _atom_site_type_symbol
 _atom_site_label
 _atom_site_symmetry_multiplicity
 _atom_site_fract_x
 _atom_site_fract_y
 _atom_site_fract_z
 _atom_site_occupancy
  Cs  Cs0  1  0.03160256  0.01001615  -0.01990044  1
  Rb  Rb1  1  -0.01281763  -0.01008856  0.53928170  1
  Rb  Rb2  1  0.49412283  0.00870779  -0.07371779  1
  Na  Na3  1  0.49918540  -0.00053108  0.41769240  1
  Sn  Sn4  1  0.24222437  0.49939640  0.25610632  1
  Sn  Sn5  1  0.24804478  0.49103728  0.74393565  1
  Sn  Sn6  1  0.74212750  0.49790367  0.26339250  1
  Ge  Ge7  1  0.76231434  0.46326700  0.74806873  1
  Br  Br8  1  0.29607247  0.49880256  -0.01729141  1
  Br  Br9  1  0.16249984  0.49827556  0.48578522  1
  I  I10  1  0.66696739  0.51040622  0.01766116  1
  Br  Br11  1  0.81570347  0.48728755  0.53134394  1
  I  I12  1  -0.00891028  0.50749410  0.17658526  1
  Br  Br13  1  0.01096419  0.51368327  0.79712510  1
  I  I14  1  0.48901474  0.49942763  0.35908892  1
  I  I15  1  0.52094377  0.50607707  0.70855254  1
  I  I16  1  0.28032743  -0.00071506  0.23810853  1
  Br  Br17  1  0.24625118  0.02165561  0.73830873  1
  I  I18  1  0.74560915  -0.00397607  0.30041897  1
  Br  Br19  1  0.76851477  0.04688595  0.76441724  1
