# generated using pymatgen
data_KRbNa2Sn4(BrCl)6
_symmetry_space_group_name_H-M   'P 1'
_cell_length_a   11.10021336
_cell_length_b   5.90456630
_cell_length_c   10.99244756
_cell_angle_alpha   90.00000000
_cell_angle_beta   90.00000000
_cell_angle_gamma   90.00000000
_symmetry_Int_Tables_number   1
_chemical_formula_structural   KRbNa2Sn4(BrCl)6
_chemical_formula_sum   'Rb1 K1 Na2 Sn4 Br6 Cl6'
_cell_volume   720.46640224
_cell_formula_units_Z   1
loop_
 _symmetry_equiv_pos_site_id
 _symmetry_equiv_pos_as_xyz
  1  'x, y, z'
loop_
 _atom_site_type_symbol
 _atom_site_label
 _atom_site_symmetry_multiplicity
 _atom_site_fract_x
 _atom_site_fract_y
 _atom_site_fract_z
 _atom_site_occupancy
  Na  Na0  1  0.02159701  0.05057899  -0.05215398  1
  Na  Na1  1  -0.01910821  -0.06588859  0.52674195  1
  Rb  Rb2  1  0.56295119  0.00890248  0.02362828  1
  K  K3  1  0.49918338  0.01618176  0.47241977  1
  Sn  Sn4  1  0.26334552  0.57805266  0.23223664  1
  Sn  Sn5  1  0.23872628  0.52049956  0.73932674  1
  Sn  Sn6  1  0.78696239  0.45628082  0.26066487  1
  Sn  Sn7  1  0.76376461  0.47614479  0.73316695  1
  Br  Br8  1  0.12309275  0.56139769  -0.02314304  1
  Br  Br9  1  0.33225544  0.52272679  0.48210374  1
  Cl  Cl10  1  0.82265080  0.30031713  0.02831465  1
  Cl  Cl11  1  0.66429353  0.49442831  0.51887874  1
  Cl  Cl12  1  0.05382976  0.73235067  0.30110881  1
  Cl  Cl13  1  -0.01914738  0.46735584  0.61775189  1
  Cl  Cl14  1  0.56153522  0.49996158  0.19265636  1
  Br  Br15  1  0.48322880  0.51866302  0.83105938  1
  Cl  Cl16  1  0.33808910  -0.00099448  0.22022047  1
  Br  Br17  1  0.19619344  0.00789419  0.72470776  1
  Br  Br18  1  0.76447428  -0.00161445  0.32868463  1
  Br  Br19  1  0.79664246  -0.03398190  0.74108427  1
