# generated using pymatgen
data_CsRbNa2Sn2Ge2I3(Br2Cl)3
_symmetry_space_group_name_H-M   'P 1'
_cell_length_a   12.06480803
_cell_length_b   5.85637226
_cell_length_c   11.27656264
_cell_angle_alpha   90.00000000
_cell_angle_beta   90.00000000
_cell_angle_gamma   90.00000000
_symmetry_Int_Tables_number   1
_chemical_formula_structural   CsRbNa2Sn2Ge2I3(Br2Cl)3
_chemical_formula_sum   'Cs1 Rb1 Na2 Sn2 Ge2 I3 Br6 Cl3'
_cell_volume   796.75688926
_cell_formula_units_Z   1
loop_
 _symmetry_equiv_pos_site_id
 _symmetry_equiv_pos_as_xyz
  1  'x, y, z'
loop_
 _atom_site_type_symbol
 _atom_site_label
 _atom_site_symmetry_multiplicity
 _atom_site_fract_x
 _atom_site_fract_y
 _atom_site_fract_z
 _atom_site_occupancy
  Cs  Cs0  1  0.02849562  -0.00177690  0.03168590  1
  Na  Na1  1  0.08805965  -0.05374320  0.53038553  1
  Na  Na2  1  0.60975671  -0.02552978  -0.04015178  1
  Rb  Rb3  1  0.49245233  0.01916138  0.42412148  1
  Ge  Ge4  1  0.24733546  0.54283714  0.28208216  1
  Sn  Sn5  1  0.25013741  0.48371154  0.78240424  1
  Ge  Ge6  1  0.74492533  0.58408006  0.24159860  1
  Sn  Sn7  1  0.74771823  0.49510504  0.71516694  1
  Cl  Cl8  1  0.18188613  0.49643152  0.00646574  1
  Br  Br9  1  0.31177522  0.48917265  0.50280819  1
  I  I10  1  0.81864163  0.49723620  -0.01149727  1
  Br  Br11  1  0.65638620  0.52688780  0.47392716  1
  Br  Br12  1  -0.05868892  0.67533230  0.30581809  1
  I  I13  1  0.00456822  0.45629669  0.64757954  1
  Br  Br14  1  0.44218456  0.55652471  0.20631617  1
  I  I15  1  0.50665025  0.47870793  0.85247154  1
  Cl  Cl16  1  0.21924539  -0.04227853  0.31210388  1
  Br  Br17  1  0.22956096  -0.02439236  0.75436193  1
  Cl  Cl18  1  0.68884207  -0.02062578  0.19910469  1
  Br  Br19  1  0.73520291  -0.00730347  0.73201809  1
