# generated using pymatgen
data_K3RbSnGe3(BrCl)6
_symmetry_space_group_name_H-M   'P 1'
_cell_length_a   11.19686725
_cell_length_b   5.58160061
_cell_length_c   11.05248085
_cell_angle_alpha   90.00000000
_cell_angle_beta   90.00000000
_cell_angle_gamma   90.00000000
_symmetry_Int_Tables_number   1
_chemical_formula_structural   K3RbSnGe3(BrCl)6
_chemical_formula_sum   'K3 Rb1 Sn1 Ge3 Br6 Cl6'
_cell_volume   690.74071763
_cell_formula_units_Z   1
loop_
 _symmetry_equiv_pos_site_id
 _symmetry_equiv_pos_as_xyz
  1  'x, y, z'
loop_
 _atom_site_type_symbol
 _atom_site_label
 _atom_site_symmetry_multiplicity
 _atom_site_fract_x
 _atom_site_fract_y
 _atom_site_fract_z
 _atom_site_occupancy
  K  K0  1  0.02745835  0.00313588  -0.01350830  1
  Rb  Rb1  1  -0.00927998  0.00073537  0.51090212  1
  K  K2  1  0.49965940  0.01616173  0.06198400  1
  K  K3  1  0.55764177  -0.00359277  0.51025113  1
  Ge  Ge4  1  0.22698905  0.51446106  0.26614353  1
  Sn  Sn5  1  0.25008764  0.50524101  0.74733867  1
  Ge  Ge6  1  0.74843306  0.52244704  0.27544037  1
  Ge  Ge7  1  0.75701964  0.52834827  0.77200756  1
  Br  Br8  1  0.31252520  0.50700025  -0.00314886  1
  Cl  Cl9  1  0.16292172  0.50553263  0.48205935  1
  Br  Br10  1  0.68568375  0.52598934  -0.00324914  1
  Cl  Cl11  1  0.80007501  0.49209171  0.49201560  1
  Br  Br12  1  0.00858840  0.50642267  0.18383751  1
  Cl  Cl13  1  -0.02496929  0.50516409  0.82196486  1
  Br  Br14  1  0.51423320  0.49142928  0.31010553  1
  Br  Br15  1  0.49291921  0.49447339  0.67932113  1
  Br  Br16  1  0.24817299  -0.00840568  0.25842620  1
  Cl  Cl17  1  0.21146421  0.00776774  0.75036318  1
  Cl  Cl18  1  0.74815087  -0.03748371  0.27666789  1
  Cl  Cl19  1  0.76107363  -0.03748680  0.74343770  1
