# generated using pymatgen
data_Cs2RbNaSn3Ge(ICl)6
_symmetry_space_group_name_H-M   'P 1'
_cell_length_a   11.28792080
_cell_length_b   6.20898812
_cell_length_c   11.65581117
_cell_angle_alpha   90.00000000
_cell_angle_beta   90.00000000
_cell_angle_gamma   90.00000000
_symmetry_Int_Tables_number   1
_chemical_formula_structural   Cs2RbNaSn3Ge(ICl)6
_chemical_formula_sum   'Cs2 Rb1 Na1 Sn3 Ge1 I6 Cl6'
_cell_volume   816.91578092
_cell_formula_units_Z   1
loop_
 _symmetry_equiv_pos_site_id
 _symmetry_equiv_pos_as_xyz
  1  'x, y, z'
loop_
 _atom_site_type_symbol
 _atom_site_label
 _atom_site_symmetry_multiplicity
 _atom_site_fract_x
 _atom_site_fract_y
 _atom_site_fract_z
 _atom_site_occupancy
  Na  Na0  1  -0.06291288  -0.11746053  0.02704408  1
  Cs  Cs1  1  -0.00292336  0.00793450  0.50130196  1
  Cs  Cs2  1  0.48182169  -0.01607217  -0.01413318  1
  Rb  Rb3  1  0.47674463  -0.00510245  0.44568793  1
  Sn  Sn4  1  0.23142369  0.53481148  0.25349082  1
  Sn  Sn5  1  0.24833780  0.51747826  0.72087226  1
  Ge  Ge6  1  0.77174820  0.49866278  0.24665064  1
  Sn  Sn7  1  0.74999242  0.48610294  0.76821914  1
  I  I8  1  0.17964584  0.63820189  -0.00966374  1
  Cl  Cl9  1  0.30693963  0.50680819  0.48772639  1
  Cl  Cl10  1  0.82789006  0.47611813  0.04088792  1
  I  I11  1  0.68426631  0.48029736  0.51678709  1
  Cl  Cl12  1  -0.01844263  0.50749813  0.32103662  1
  Cl  Cl13  1  0.01978816  0.50886634  0.67048561  1
  I  I14  1  0.49758998  0.48120918  0.19726654  1
  Cl  Cl15  1  0.52313383  0.48973486  0.82671646  1
  Cl  Cl16  1  0.23730080  -0.04151478  0.27823772  1
  I  I17  1  0.28296118  0.01115099  0.70416994  1
  I  I18  1  0.75778397  -0.02553687  0.24139360  1
  I  I19  1  0.78606227  -0.01593859  0.79769409  1
