# generated using pymatgen
data_Cs2K2Sn3Ge(BrCl)6
_symmetry_space_group_name_H-M   'P 1'
_cell_length_a   11.27974475
_cell_length_b   5.79576340
_cell_length_c   11.37519962
_cell_angle_alpha   90.00000000
_cell_angle_beta   90.00000000
_cell_angle_gamma   90.00000000
_symmetry_Int_Tables_number   1
_chemical_formula_structural   Cs2K2Sn3Ge(BrCl)6
_chemical_formula_sum   'Cs2 K2 Sn3 Ge1 Br6 Cl6'
_cell_volume   743.65062441
_cell_formula_units_Z   1
loop_
 _symmetry_equiv_pos_site_id
 _symmetry_equiv_pos_as_xyz
  1  'x, y, z'
loop_
 _atom_site_type_symbol
 _atom_site_label
 _atom_site_symmetry_multiplicity
 _atom_site_fract_x
 _atom_site_fract_y
 _atom_site_fract_z
 _atom_site_occupancy
  Cs  Cs0  1  0.00791453  -0.01679190  -0.01568735  1
  K  K1  1  0.00086969  -0.01280226  0.51787750  1
  K  K2  1  0.50077687  -0.00171176  0.05094063  1
  Cs  Cs3  1  0.49094206  0.00499528  0.49055872  1
  Ge  Ge4  1  0.22545647  0.47287619  0.25276152  1
  Sn  Sn5  1  0.25434819  0.49861635  0.73995356  1
  Sn  Sn6  1  0.75692542  0.49718169  0.24946807  1
  Sn  Sn7  1  0.76919078  0.49985747  0.73367590  1
  Br  Br8  1  0.31194288  0.50847671  -0.02007081  1
  Cl  Cl9  1  0.17874651  0.47899944  0.46396553  1
  Br  Br10  1  0.70293543  0.50575819  -0.00174042  1
  Cl  Cl11  1  0.83137256  0.48952166  0.49860695  1
  Cl  Cl12  1  0.01739306  0.48329789  0.18376432  1
  Cl  Cl13  1  0.01218830  0.48361716  0.79661170  1
  Br  Br14  1  0.50427351  0.50569214  0.28255350  1
  Br  Br15  1  0.51173181  0.50693549  0.68171412  1
  Br  Br16  1  0.24610954  0.02037195  0.24256114  1
  Cl  Cl17  1  0.23255732  -0.03287996  0.71597658  1
  Br  Br18  1  0.76051852  -0.00254056  0.25227038  1
  Cl  Cl19  1  0.78728084  -0.02752295  0.72359449  1
