# generated using pymatgen
data_Cs2Rb2Sn3GeI3(BrCl2)3
_symmetry_space_group_name_H-M   'P 1'
_cell_length_a   11.66279011
_cell_length_b   6.07235828
_cell_length_c   11.19904522
_cell_angle_alpha   90.00000000
_cell_angle_beta   90.00000000
_cell_angle_gamma   90.00000000
_symmetry_Int_Tables_number   1
_chemical_formula_structural   Cs2Rb2Sn3GeI3(BrCl2)3
_chemical_formula_sum   'Cs2 Rb2 Sn3 Ge1 I3 Br3 Cl6'
_cell_volume   793.12355159
_cell_formula_units_Z   1
loop_
 _symmetry_equiv_pos_site_id
 _symmetry_equiv_pos_as_xyz
  1  'x, y, z'
loop_
 _atom_site_type_symbol
 _atom_site_label
 _atom_site_symmetry_multiplicity
 _atom_site_fract_x
 _atom_site_fract_y
 _atom_site_fract_z
 _atom_site_occupancy
  Cs  Cs0  1  -0.01395605  -0.00779573  -0.00939152  1
  Rb  Rb1  1  0.03204701  0.00109305  0.50175941  1
  Cs  Cs2  1  0.50900429  -0.01026885  0.00329908  1
  Rb  Rb3  1  0.50717316  0.00175538  0.50516579  1
  Sn  Sn4  1  0.23314553  0.49248665  0.25100124  1
  Sn  Sn5  1  0.24124929  0.47941389  0.76521462  1
  Ge  Ge6  1  0.73736459  0.48814109  0.24415054  1
  Sn  Sn7  1  0.70552315  0.48088373  0.74861983  1
  Cl  Cl8  1  0.16384596  0.48952519  0.01139213  1
  Br  Br9  1  0.30200383  0.49330276  0.51221301  1
  Cl  Cl10  1  0.78543241  0.48973178  0.03289992  1
  Cl  Cl11  1  0.65073800  0.49681552  0.52310770  1
  Br  Br12  1  0.00309560  0.49477385  0.32075813  1
  I  I13  1  -0.02511141  0.50347698  0.69978735  1
  Br  Br14  1  0.51505087  0.49157386  0.20979729  1
  Cl  Cl15  1  0.47523270  0.48493870  0.83073003  1
  I  I16  1  0.25881242  -0.00728561  0.25131256  1
  Cl  Cl17  1  0.23314714  0.03957968  0.76010100  1
  I  I18  1  0.75503317  -0.00361617  0.27014490  1
  Cl  Cl19  1  0.70366462  0.03979279  0.75102702  1
