# generated using pymatgen
data_K3NaSn3Ge(IBr)6
_symmetry_space_group_name_H-M   'P 1'
_cell_length_a   11.47385869
_cell_length_b   6.15012545
_cell_length_c   11.83836584
_cell_angle_alpha   90.00000000
_cell_angle_beta   90.00000000
_cell_angle_gamma   90.00000000
_symmetry_Int_Tables_number   1
_chemical_formula_structural   K3NaSn3Ge(IBr)6
_chemical_formula_sum   'K3 Na1 Sn3 Ge1 I6 Br6'
_cell_volume   835.38222062
_cell_formula_units_Z   1
loop_
 _symmetry_equiv_pos_site_id
 _symmetry_equiv_pos_as_xyz
  1  'x, y, z'
loop_
 _atom_site_type_symbol
 _atom_site_label
 _atom_site_symmetry_multiplicity
 _atom_site_fract_x
 _atom_site_fract_y
 _atom_site_fract_z
 _atom_site_occupancy
  Na  Na0  1  0.08059995  0.06986520  0.02295703  1
  K  K1  1  -0.05207674  -0.02356567  0.49730877  1
  K  K2  1  0.50314160  0.03057467  0.02127438  1
  K  K3  1  0.50916731  0.03302569  0.51123093  1
  Ge  Ge4  1  0.26106463  0.48273695  0.24299732  1
  Sn  Sn5  1  0.24058859  0.53165065  0.74951278  1
  Sn  Sn6  1  0.76291350  0.45314111  0.24823891  1
  Sn  Sn7  1  0.76536098  0.46378255  0.76048379  1
  I  I8  1  0.15427436  0.56870994  0.00925076  1
  I  I9  1  0.32002218  0.52373619  0.49150074  1
  I  I10  1  0.81764678  0.23719070  0.00517511  1
  I  I11  1  0.68625108  0.53765683  0.50509523  1
  Br  Br12  1  -0.00505544  0.45157241  0.32003052  1
  Br  Br13  1  0.00408792  0.49444924  0.65978581  1
  Br  Br14  1  0.47989993  0.52122911  0.18393423  1
  I  I15  1  0.50599674  0.53199575  0.84138198  1
  Br  Br16  1  0.25964898  0.06292772  0.22014548  1
  I  I17  1  0.24982765  0.03927096  0.78678029  1
  Br  Br18  1  0.72161997  0.01960604  0.29801750  1
  Br  Br19  1  0.73796109  0.02802552  0.70394727  1
