# generated using pymatgen
data_CsK2NaSn3GeI3(BrCl2)3
_symmetry_space_group_name_H-M   'P 1'
_cell_length_a   11.70555088
_cell_length_b   5.99992348
_cell_length_c   10.98372480
_cell_angle_alpha   90.00000000
_cell_angle_beta   90.00000000
_cell_angle_gamma   90.00000000
_symmetry_Int_Tables_number   1
_chemical_formula_structural   CsK2NaSn3GeI3(BrCl2)3
_chemical_formula_sum   'Cs1 K2 Na1 Sn3 Ge1 I3 Br3 Cl6'
_cell_volume   771.41345821
_cell_formula_units_Z   1
loop_
 _symmetry_equiv_pos_site_id
 _symmetry_equiv_pos_as_xyz
  1  'x, y, z'
loop_
 _atom_site_type_symbol
 _atom_site_label
 _atom_site_symmetry_multiplicity
 _atom_site_fract_x
 _atom_site_fract_y
 _atom_site_fract_z
 _atom_site_occupancy
  K  K0  1  -0.06325245  0.01426503  -0.02480692  1
  Cs  Cs1  1  0.00403566  0.00563044  0.48357620  1
  K  K2  1  0.44018401  0.01349263  0.03824650  1
  Na  Na3  1  0.60329200  -0.14088697  0.50344268  1
  Sn  Sn4  1  0.24595145  0.49470859  0.24737963  1
  Sn  Sn5  1  0.22112370  0.49558544  0.75089093  1
  Ge  Ge6  1  0.72321578  0.42970582  0.22916551  1
  Sn  Sn7  1  0.74334475  0.45746417  0.74637097  1
  Cl  Cl8  1  0.32112055  0.50663801  0.01159739  1
  Cl  Cl9  1  0.16528663  0.50286195  0.50930577  1
  Cl  Cl10  1  0.67830017  0.33478850  0.01263910  1
  Br  Br11  1  0.79742381  0.51490043  0.49770644  1
  I  I12  1  -0.01345864  0.51137437  0.17660738  1
  Cl  Cl13  1  -0.02735792  0.48259555  0.80957226  1
  Br  Br14  1  0.50634957  0.52150126  0.29702881  1
  I  I15  1  0.47959822  0.48688115  0.67193694  1
  Cl  Cl16  1  0.24515706  0.05157276  0.24664021  1
  I  I17  1  0.20254034  -0.00469670  0.80665791  1
  Br  Br18  1  0.73313899  0.00682779  0.27628800  1
  Cl  Cl19  1  0.74945237  0.00990305  0.71713645  1
