# generated using pymatgen
data_Cs2KRbSn2Ge2(ICl3)3
_symmetry_space_group_name_H-M   'P 1'
_cell_length_a   11.69735961
_cell_length_b   5.75328369
_cell_length_c   11.18540027
_cell_angle_alpha   90.00000000
_cell_angle_beta   90.00000000
_cell_angle_gamma   90.00000000
_symmetry_Int_Tables_number   1
_chemical_formula_structural   Cs2KRbSn2Ge2(ICl3)3
_chemical_formula_sum   'Cs2 K1 Rb1 Sn2 Ge2 I3 Cl9'
_cell_volume   752.75762097
_cell_formula_units_Z   1
loop_
 _symmetry_equiv_pos_site_id
 _symmetry_equiv_pos_as_xyz
  1  'x, y, z'
loop_
 _atom_site_type_symbol
 _atom_site_label
 _atom_site_symmetry_multiplicity
 _atom_site_fract_x
 _atom_site_fract_y
 _atom_site_fract_z
 _atom_site_occupancy
  K  K0  1  -0.07045728  -0.01055027  -0.01568507  1
  Rb  Rb1  1  0.03972102  -0.00474214  0.44951699  1
  Cs  Cs2  1  0.50238396  0.00970774  0.01198817  1
  Cs  Cs3  1  0.54847907  -0.00527264  0.49803325  1
  Sn  Sn4  1  0.26963117  0.50149024  0.24577861  1
  Sn  Sn5  1  0.26623957  0.49543580  0.74505203  1
  Ge  Ge6  1  0.73840445  0.47437674  0.23841624  1
  Ge  Ge7  1  0.75379052  0.47276190  0.76700636  1
  Cl  Cl8  1  0.32240516  0.50559171  -0.01262451  1
  Cl  Cl9  1  0.20624115  0.49301122  0.48523773  1
  Cl  Cl10  1  0.69409339  0.51698273  0.02034029  1
  I  I11  1  0.81519391  0.49303501  0.51464347  1
  I  I12  1  0.01260589  0.50857475  0.18958430  1
  Cl  Cl13  1  -0.05088229  0.48336387  0.83129155  1
  Cl  Cl14  1  0.52972861  0.48727251  0.29408802  1
  Cl  Cl15  1  0.48849915  0.50196197  0.69174931  1
  Cl  Cl16  1  0.28431068  -0.02010392  0.26402565  1
  I  I17  1  0.16629391  -0.00831242  0.76517340  1
  Cl  Cl18  1  0.75005549  0.05019046  0.23161757  1
  Cl  Cl19  1  0.73174350  0.04945674  0.77732841  1
