# generated using pymatgen
data_CsK2RbSn2Ge2(ICl)6
_symmetry_space_group_name_H-M   'P 1'
_cell_length_a   11.45899303
_cell_length_b   6.01578095
_cell_length_c   11.63917461
_cell_angle_alpha   90.00000000
_cell_angle_beta   90.00000000
_cell_angle_gamma   90.00000000
_symmetry_Int_Tables_number   1
_chemical_formula_structural   CsK2RbSn2Ge2(ICl)6
_chemical_formula_sum   'Cs1 K2 Rb1 Sn2 Ge2 I6 Cl6'
_cell_volume   802.34407988
_cell_formula_units_Z   1
loop_
 _symmetry_equiv_pos_site_id
 _symmetry_equiv_pos_as_xyz
  1  'x, y, z'
loop_
 _atom_site_type_symbol
 _atom_site_label
 _atom_site_symmetry_multiplicity
 _atom_site_fract_x
 _atom_site_fract_y
 _atom_site_fract_z
 _atom_site_occupancy
  Cs  Cs0  1  0.00179402  0.01418276  0.00106564  1
  K  K1  1  -0.00020368  0.00165983  0.44982613  1
  Rb  Rb2  1  0.53774257  -0.01494702  0.02849353  1
  K  K3  1  0.46372754  0.00490934  0.49423073  1
  Ge  Ge4  1  0.22746337  0.50799993  0.25988540  1
  Sn  Sn5  1  0.23601536  0.50732814  0.73884437  1
  Sn  Sn6  1  0.76846336  0.51629302  0.25871695  1
  Ge  Ge7  1  0.75872631  0.54127276  0.79625543  1
  I  I8  1  0.30869581  0.50031541  -0.01178605  1
  Cl  Cl9  1  0.17380623  0.50800042  0.46344806  1
  Cl  Cl10  1  0.69228816  0.48352122  0.00070757  1
  I  I11  1  0.82301704  0.50559975  0.51349246  1
  Cl  Cl12  1  0.01756348  0.50721839  0.19355756  1
  Cl  Cl13  1  -0.03067851  0.51827015  0.83911357  1
  I  I14  1  0.50406429  0.51057078  0.30348214  1
  I  I15  1  0.48970107  0.50263362  0.67212804  1
  I  I16  1  0.25000502  0.00656052  0.24924083  1
  I  I17  1  0.19851469  0.00805549  0.69520813  1
  Cl  Cl18  1  0.77829431  -0.03459615  0.24436717  1
  Cl  Cl19  1  0.74355283  -0.06125800  0.80837442  1
