# generated using pymatgen
data_CsRb2NaSn3GeI6(BrCl)3
_symmetry_space_group_name_H-M   'P 1'
_cell_length_a   11.54069350
_cell_length_b   6.16966208
_cell_length_c   11.80669113
_cell_angle_alpha   90.00000000
_cell_angle_beta   90.00000000
_cell_angle_gamma   90.00000000
_symmetry_Int_Tables_number   1
_chemical_formula_structural   CsRb2NaSn3GeI6(BrCl)3
_chemical_formula_sum   'Cs1 Rb2 Na1 Sn3 Ge1 I6 Br3 Cl3'
_cell_volume   840.66213630
_cell_formula_units_Z   1
loop_
 _symmetry_equiv_pos_site_id
 _symmetry_equiv_pos_as_xyz
  1  'x, y, z'
loop_
 _atom_site_type_symbol
 _atom_site_label
 _atom_site_symmetry_multiplicity
 _atom_site_fract_x
 _atom_site_fract_y
 _atom_site_fract_z
 _atom_site_occupancy
  Na  Na0  1  0.00718495  0.05448927  0.11474577  1
  Cs  Cs1  1  0.04381297  0.00212821  0.54725126  1
  Rb  Rb2  1  0.58291148  0.02226699  -0.03451804  1
  Rb  Rb3  1  0.50591473  -0.01599222  0.54744653  1
  Sn  Sn4  1  0.25018048  0.51148917  0.24670114  1
  Sn  Sn5  1  0.25184084  0.50039409  0.78000408  1
  Ge  Ge6  1  0.74184784  0.46337816  0.24779500  1
  Sn  Sn7  1  0.76309551  0.48947889  0.74125944  1
  I  I8  1  0.11132448  0.52348160  0.02111702  1
  I  I9  1  0.30543570  0.50115943  0.51954858  1
  Cl  Cl10  1  0.77784457  0.48271853  -0.04095030  1
  Br  Br11  1  0.65817959  0.44836306  0.44744291  1
  I  I12  1  -0.02147266  0.50681518  0.34143695  1
  Cl  Cl13  1  0.03244266  0.49933317  0.70835169  1
  I  I14  1  0.49232938  0.51454119  0.13420667  1
  Cl  Cl15  1  0.53431262  0.47235218  0.76331541  1
  I  I16  1  0.23864332  0.01085736  0.26238736  1
  I  I17  1  0.28807026  -0.00118832  0.79713056  1
  Br  Br18  1  0.76681430  0.04493132  0.21268304  1
  Br  Br19  1  0.75891595  -0.03414356  0.72028294  1
