# generated using pymatgen
data_CsK2RbSn3Ge(Br3Cl)3
_symmetry_space_group_name_H-M   'P 1'
_cell_length_a   11.25078049
_cell_length_b   5.91069908
_cell_length_c   11.21732068
_cell_angle_alpha   90.00000000
_cell_angle_beta   90.00000000
_cell_angle_gamma   90.00000000
_symmetry_Int_Tables_number   1
_chemical_formula_structural   CsK2RbSn3Ge(Br3Cl)3
_chemical_formula_sum   'Cs1 K2 Rb1 Sn3 Ge1 Br9 Cl3'
_cell_volume   745.95157739
_cell_formula_units_Z   1
loop_
 _symmetry_equiv_pos_site_id
 _symmetry_equiv_pos_as_xyz
  1  'x, y, z'
loop_
 _atom_site_type_symbol
 _atom_site_label
 _atom_site_symmetry_multiplicity
 _atom_site_fract_x
 _atom_site_fract_y
 _atom_site_fract_z
 _atom_site_occupancy
  K  K0  1  0.02827605  -0.01045029  0.01215594  1
  Cs  Cs1  1  0.00147599  -0.00686120  0.50408027  1
  K  K2  1  0.51107200  -0.00520567  0.01291657  1
  Rb  Rb3  1  0.49363806  -0.00370861  0.51115267  1
  Ge  Ge4  1  0.24252270  0.46569765  0.24016753  1
  Sn  Sn5  1  0.25346787  0.49161779  0.75171213  1
  Sn  Sn6  1  0.74981537  0.49275026  0.23820036  1
  Sn  Sn7  1  0.73575737  0.49376049  0.75852910  1
  Br  Br8  1  0.32251159  0.49487262  0.00299122  1
  Br  Br9  1  0.20211757  0.49271306  0.48860246  1
  Cl  Cl10  1  0.66263214  0.49370088  -0.00292384  1
  Br  Br11  1  0.80446053  0.49296469  0.49633218  1
  Cl  Cl12  1  0.03021715  0.48317079  0.18274871  1
  Br  Br13  1  -0.00435941  0.49355758  0.82601476  1
  Br  Br14  1  0.51126120  0.49935239  0.30807131  1
  Cl  Cl15  1  0.49522154  0.49423604  0.68124459  1
  Br  Br16  1  0.25412595  0.02243686  0.23978206  1
  Br  Br17  1  0.25479166  -0.00689187  0.75864961  1
  Br  Br18  1  0.76813499  -0.00723696  0.21803596  1
  Br  Br19  1  0.72605546  -0.00661123  0.75935045  1
