# generated using pymatgen
data_K2RbNaGe4(BrCl)6
_symmetry_space_group_name_H-M   'P 1'
_cell_length_a   10.77046512
_cell_length_b   5.60228667
_cell_length_c   11.02644216
_cell_angle_alpha   90.00000000
_cell_angle_beta   90.00000000
_cell_angle_gamma   90.00000000
_symmetry_Int_Tables_number   1
_chemical_formula_structural   K2RbNaGe4(BrCl)6
_chemical_formula_sum   'K2 Rb1 Na1 Ge4 Br6 Cl6'
_cell_volume   665.32706433
_cell_formula_units_Z   1
loop_
 _symmetry_equiv_pos_site_id
 _symmetry_equiv_pos_as_xyz
  1  'x, y, z'
loop_
 _atom_site_type_symbol
 _atom_site_label
 _atom_site_symmetry_multiplicity
 _atom_site_fract_x
 _atom_site_fract_y
 _atom_site_fract_z
 _atom_site_occupancy
  Na  Na0  1  -0.01765694  0.00415063  -0.06890088  1
  K  K1  1  0.01042294  -0.00503406  0.50024972  1
  Rb  Rb2  1  0.47362833  -0.00480165  0.02480602  1
  K  K3  1  0.50843419  0.00296153  0.47946081  1
  Ge  Ge4  1  0.26152782  0.47437112  0.26773563  1
  Ge  Ge5  1  0.24789207  0.49130489  0.77615967  1
  Ge  Ge6  1  0.76201240  0.48990261  0.27656929  1
  Ge  Ge7  1  0.77340112  0.50026273  0.75841866  1
  Br  Br8  1  0.17314547  0.49723637  0.00374416  1
  Br  Br9  1  0.31189985  0.50818022  0.50415393  1
  Cl  Cl10  1  0.83338363  0.49900568  -0.02980433  1
  Cl  Cl11  1  0.68388676  0.49678203  0.48273918  1
  Cl  Cl12  1  -0.02070289  0.49267312  0.33720560  1
  Cl  Cl13  1  -0.01224601  0.49909174  0.68236956  1
  Cl  Cl14  1  0.47843708  0.49838170  0.20325589  1
  Br  Br15  1  0.48637780  0.49210659  0.82442795  1
  Cl  Cl16  1  0.26058543  0.03812007  0.27358715  1
  Br  Br17  1  0.21847309  0.00540891  0.76484351  1
  Br  Br18  1  0.74552493  0.00897784  0.25169773  1
  Br  Br19  1  0.76542151  -0.00473406  0.74766684  1
