# generated using pymatgen
data_K2Na2Sn3GeI3(Br2Cl)3
_symmetry_space_group_name_H-M   'P 1'
_cell_length_a   11.05436965
_cell_length_b   6.24550462
_cell_length_c   11.28561195
_cell_angle_alpha   90.00000000
_cell_angle_beta   90.00000000
_cell_angle_gamma   90.00000000
_symmetry_Int_Tables_number   1
_chemical_formula_structural   K2Na2Sn3GeI3(Br2Cl)3
_chemical_formula_sum   'K2 Na2 Sn3 Ge1 I3 Br6 Cl3'
_cell_volume   779.15996626
_cell_formula_units_Z   1
loop_
 _symmetry_equiv_pos_site_id
 _symmetry_equiv_pos_as_xyz
  1  'x, y, z'
loop_
 _atom_site_type_symbol
 _atom_site_label
 _atom_site_symmetry_multiplicity
 _atom_site_fract_x
 _atom_site_fract_y
 _atom_site_fract_z
 _atom_site_occupancy
  K  K0  1  -0.00080262  0.00187248  -0.01469937  1
  Na  Na1  1  0.01795231  0.14424151  0.40511485  1
  Na  Na2  1  0.49291533  0.16090450  -0.08395784  1
  K  K3  1  0.50586037  0.01117995  0.49190288  1
  Ge  Ge4  1  0.26157211  0.52092339  0.27940010  1
  Sn  Sn5  1  0.24166541  0.51222671  0.75826364  1
  Sn  Sn6  1  0.75678726  0.46186958  0.24349977  1
  Sn  Sn7  1  0.76407558  0.46691938  0.75745518  1
  I  I8  1  0.34284845  0.58460252  0.00602270  1
  Cl  Cl9  1  0.19370223  0.43217391  0.48723144  1
  Cl  Cl10  1  0.69449312  0.41132932  -0.00625342  1
  Br  Br11  1  0.82808769  0.43990411  0.49511471  1
  Br  Br12  1  0.01170979  0.42869386  0.18538354  1
  Cl  Cl13  1  0.00444907  0.50903946  0.84876346  1
  Br  Br14  1  0.49623114  0.50594659  0.34194323  1
  Br  Br15  1  0.50302123  0.45245836  0.68755492  1
  Br  Br16  1  0.24426108  -0.06740133  0.29947364  1
  Br  Br17  1  0.24951593  0.06363465  0.79033911  1
  I  I18  1  0.77549595  -0.04139094  0.25744276  1
  I  I19  1  0.72963179  -0.04040629  0.76479623  1
