# generated using pymatgen
data_CsRb2NaSn2Ge2(BrCl3)3
_symmetry_space_group_name_H-M   'P 1'
_cell_length_a   11.06176862
_cell_length_b   5.76368520
_cell_length_c   11.20184283
_cell_angle_alpha   90.00000000
_cell_angle_beta   90.00000000
_cell_angle_gamma   90.00000000
_symmetry_Int_Tables_number   1
_chemical_formula_structural   CsRb2NaSn2Ge2(BrCl3)3
_chemical_formula_sum   'Cs1 Rb2 Na1 Sn2 Ge2 Br3 Cl9'
_cell_volume   714.19087587
_cell_formula_units_Z   1
loop_
 _symmetry_equiv_pos_site_id
 _symmetry_equiv_pos_as_xyz
  1  'x, y, z'
loop_
 _atom_site_type_symbol
 _atom_site_label
 _atom_site_symmetry_multiplicity
 _atom_site_fract_x
 _atom_site_fract_y
 _atom_site_fract_z
 _atom_site_occupancy
  Na  Na0  1  -0.03189003  -0.01607723  -0.12481317  1
  Rb  Rb1  1  0.01023479  -0.01212291  0.42758803  1
  Cs  Cs2  1  0.49694326  0.01783191  0.02020135  1
  Rb  Rb3  1  0.51420221  -0.02018452  0.47848528  1
  Ge  Ge4  1  0.24874107  0.53281216  0.24082023  1
  Sn  Sn5  1  0.23243440  0.49123900  0.76210277  1
  Sn  Sn6  1  0.74732441  0.49850006  0.23740884  1
  Ge  Ge7  1  0.73204689  0.46350699  0.73992234  1
  Cl  Cl8  1  0.30166700  0.52232082  0.02530201  1
  Br  Br9  1  0.18999395  0.48409465  0.51436144  1
  Cl  Cl10  1  0.68915527  0.51590610  0.00377829  1
  Br  Br11  1  0.80912075  0.47940101  0.51553420  1
  Cl  Cl12  1  0.02924415  0.55789041  0.20985438  1
  Cl  Cl13  1  -0.00221946  0.48943817  0.83210868  1
  Cl  Cl14  1  0.51708381  0.47744322  0.30243645  1
  Cl  Cl15  1  0.51659850  0.46216949  0.68579855  1
  Cl  Cl16  1  0.27598554  -0.04926396  0.26702924  1
  Br  Br17  1  0.21564413  -0.00809312  0.76707349  1
  Cl  Cl18  1  0.73956807  -0.02540672  0.25886137  1
  Cl  Cl19  1  0.74466378  0.03767225  0.75899562  1
