# generated using pymatgen
data_CsK3Sn3Ge(ICl)6
_symmetry_space_group_name_H-M   'P 1'
_cell_length_a   11.25382765
_cell_length_b   5.59601003
_cell_length_c   12.99711247
_cell_angle_alpha   90.00000000
_cell_angle_beta   90.00000000
_cell_angle_gamma   90.00000000
_symmetry_Int_Tables_number   1
_chemical_formula_structural   CsK3Sn3Ge(ICl)6
_chemical_formula_sum   'Cs1 K3 Sn3 Ge1 I6 Cl6'
_cell_volume   818.51307451
_cell_formula_units_Z   1
loop_
 _symmetry_equiv_pos_site_id
 _symmetry_equiv_pos_as_xyz
  1  'x, y, z'
loop_
 _atom_site_type_symbol
 _atom_site_label
 _atom_site_symmetry_multiplicity
 _atom_site_fract_x
 _atom_site_fract_y
 _atom_site_fract_z
 _atom_site_occupancy
  K  K0  1  -0.03485389  0.00660265  0.07974355  1
  Cs  Cs1  1  0.05087100  -0.00856393  0.45924723  1
  K  K2  1  0.55910062  -0.00361864  0.05339173  1
  K  K3  1  0.47457910  0.00437437  0.41757971  1
  Sn  Sn4  1  0.25702021  0.49862942  0.22729366  1
  Sn  Sn5  1  0.25434662  0.49986818  0.76560844  1
  Ge  Ge6  1  0.75776431  0.47964176  0.25885288  1
  Sn  Sn7  1  0.73727420  0.49731657  0.73856953  1
  I  I8  1  0.13516702  0.50614645  -0.02178763  1
  Cl  Cl9  1  0.28308273  0.49875337  0.42904730  1
  Cl  Cl10  1  0.78246017  0.50207685  0.07423798  1
  I  I11  1  0.65574689  0.50688769  0.51195286  1
  Cl  Cl12  1  -0.02090015  0.48515285  0.28547549  1
  I  I13  1  -0.00360860  0.49225002  0.65548598  1
  Cl  Cl14  1  0.49506965  0.50224983  0.20696220  1
  I  I15  1  0.49587175  0.49628781  0.88288187  1
  Cl  Cl16  1  0.25596930  -0.00143099  0.22964543  1
  I  I17  1  0.31948649  -0.00018224  0.66507634  1
  Cl  Cl18  1  0.74342001  0.03575481  0.26039181  1
  I  I19  1  0.79060544  -0.00566734  0.84429851  1
