# generated using pymatgen
data_CsNa3Sn2Ge2I6(BrCl)3
_symmetry_space_group_name_H-M   'P 1'
_cell_length_a   11.28990725
_cell_length_b   6.19828523
_cell_length_c   11.59021802
_cell_angle_alpha   90.00000000
_cell_angle_beta   90.00000000
_cell_angle_gamma   90.00000000
_symmetry_Int_Tables_number   1
_chemical_formula_structural   CsNa3Sn2Ge2I6(BrCl)3
_chemical_formula_sum   'Cs1 Na3 Sn2 Ge2 I6 Br3 Cl3'
_cell_volume   811.06103354
_cell_formula_units_Z   1
loop_
 _symmetry_equiv_pos_site_id
 _symmetry_equiv_pos_as_xyz
  1  'x, y, z'
loop_
 _atom_site_type_symbol
 _atom_site_label
 _atom_site_symmetry_multiplicity
 _atom_site_fract_x
 _atom_site_fract_y
 _atom_site_fract_z
 _atom_site_occupancy
  Na  Na0  1  -0.05899184  0.16411666  0.07274486  1
  Cs  Cs1  1  0.00895900  -0.04147277  0.54200065  1
  Na  Na2  1  0.59866862  -0.17467361  -0.01696889  1
  Na  Na3  1  0.42903975  -0.07168124  0.47739898  1
  Ge  Ge4  1  0.23544535  0.49955912  0.25119284  1
  Sn  Sn5  1  0.27047659  0.45211206  0.75939926  1
  Ge  Ge6  1  0.72099206  0.61347998  0.28082965  1
  Sn  Sn7  1  0.77387068  0.46638227  0.78202805  1
  I  I8  1  0.15788184  0.47412218  0.01230485  1
  I  I9  1  0.34484013  0.43337456  0.49714248  1
  Cl  Cl10  1  0.80782734  0.52957917  0.00229109  1
  Br  Br11  1  0.67931935  0.74387024  0.48887434  1
  I  I12  1  -0.02505631  0.45806415  0.32451196  1
  Cl  Cl13  1  0.04146463  0.45701893  0.69439007  1
  I  I14  1  0.48646236  0.50460414  0.17573006  1
  Cl  Cl15  1  0.54465273  0.49305750  0.82503298  1
  I  I16  1  0.22739542  -0.04131090  0.27149504  1
  I  I17  1  0.30527309  -0.05119761  0.73891498  1
  Br  Br18  1  0.72509529  0.00327771  0.19674067  1
  Br  Br19  1  0.79714606  0.02001305  0.82414255  1
