# generated using pymatgen
data_K2RbNaSnGe3(BrCl)6
_symmetry_space_group_name_H-M   'P 1'
_cell_length_a   11.21332965
_cell_length_b   5.61029603
_cell_length_c   11.06368410
_cell_angle_alpha   90.00000000
_cell_angle_beta   90.00000000
_cell_angle_gamma   90.00000000
_symmetry_Int_Tables_number   1
_chemical_formula_structural   K2RbNaSnGe3(BrCl)6
_chemical_formula_sum   'K2 Rb1 Na1 Sn1 Ge3 Br6 Cl6'
_cell_volume   696.01745971
_cell_formula_units_Z   1
loop_
 _symmetry_equiv_pos_site_id
 _symmetry_equiv_pos_as_xyz
  1  'x, y, z'
loop_
 _atom_site_type_symbol
 _atom_site_label
 _atom_site_symmetry_multiplicity
 _atom_site_fract_x
 _atom_site_fract_y
 _atom_site_fract_z
 _atom_site_occupancy
  K  K0  1  0.02102508  0.02256016  -0.01533933  1
  Rb  Rb1  1  0.08647061  -0.00345691  0.49325902  1
  K  K2  1  0.51215151  -0.01024654  -0.01821004  1
  Na  Na3  1  0.61112967  -0.01076267  0.50740106  1
  Ge  Ge4  1  0.24527240  0.48090126  0.21921961  1
  Sn  Sn5  1  0.26041369  0.50184300  0.74721266  1
  Ge  Ge6  1  0.74064100  0.48831826  0.27165981  1
  Ge  Ge7  1  0.74605234  0.52475727  0.76287377  1
  Cl  Cl8  1  0.16723933  0.51833883  0.00875340  1
  Br  Br9  1  0.30872502  0.50705397  0.49678871  1
  Br  Br10  1  0.81087461  0.53732583  -0.01159246  1
  Cl  Cl11  1  0.66935799  0.48993464  0.48557014  1
  Br  Br12  1  -0.03428748  0.49376801  0.31810579  1
  Br  Br13  1  0.01420428  0.49341629  0.69109763  1
  Br  Br14  1  0.46828690  0.49191704  0.15952518  1
  Cl  Cl15  1  0.53079600  0.49079025  0.81285084  1
  Cl  Cl16  1  0.22481729  0.04871324  0.21747898  1
  Cl  Cl17  1  0.25327228  0.00264661  0.77490509  1
  Br  Br18  1  0.71598177  0.00762637  0.25684827  1
  Cl  Cl19  1  0.73194264  -0.03967602  0.73516903  1
