# generated using pymatgen
data_CsKRb2SnGe3(I3Cl)3
_symmetry_space_group_name_H-M   'P 1'
_cell_length_a   11.80960825
_cell_length_b   6.11505101
_cell_length_c   11.76522890
_cell_angle_alpha   90.00000000
_cell_angle_beta   90.00000000
_cell_angle_gamma   90.00000000
_symmetry_Int_Tables_number   1
_chemical_formula_structural   CsKRb2SnGe3(I3Cl)3
_chemical_formula_sum   'Cs1 Rb2 K1 Sn1 Ge3 I9 Cl3'
_cell_volume   849.64196868
_cell_formula_units_Z   1
loop_
 _symmetry_equiv_pos_site_id
 _symmetry_equiv_pos_as_xyz
  1  'x, y, z'
loop_
 _atom_site_type_symbol
 _atom_site_label
 _atom_site_symmetry_multiplicity
 _atom_site_fract_x
 _atom_site_fract_y
 _atom_site_fract_z
 _atom_site_occupancy
  Rb  Rb0  1  0.02787186  -0.00565874  0.02229315  1
  Rb  Rb1  1  -0.06414025  -0.00146826  0.50827904  1
  K  K2  1  0.48542449  0.00634353  -0.00642294  1
  Cs  Cs3  1  0.47893316  0.00176014  0.52018998  1
  Ge  Ge4  1  0.26338856  0.48963342  0.27410214  1
  Ge  Ge5  1  0.23057844  0.48282146  0.78381231  1
  Sn  Sn6  1  0.75425129  0.49749707  0.23829282  1
  Ge  Ge7  1  0.74501593  0.44668520  0.74970646  1
  Cl  Cl8  1  0.18480986  0.49246585  -0.01893971  1
  Cl  Cl9  1  0.31746222  0.49430471  0.46941525  1
  I  I10  1  0.83469076  0.49346601  -0.01207572  1
  I  I11  1  0.69501995  0.51031804  0.50294531  1
  I  I12  1  0.01394728  0.50055253  0.31619415  1
  I  I13  1  0.00219844  0.49747913  0.68691951  1
  I  I14  1  0.49918031  0.50523609  0.16615738  1
  I  I15  1  0.50046475  0.50636252  0.80158687  1
  I  I16  1  0.26364687  0.00847577  0.24280270  1
  I  I17  1  0.24745250  0.00648855  0.77288553  1
  I  I18  1  0.75056194  -0.00120618  0.23955018  1
  Cl  Cl19  1  0.74216414  0.05460627  0.73930619  1
