# generated using pymatgen
data_CsRbNa2Sn2Ge2I3(Br2Cl)3
_symmetry_space_group_name_H-M   'P 1'
_cell_length_a   11.44820160
_cell_length_b   5.92386603
_cell_length_c   11.58413910
_cell_angle_alpha   90.00000000
_cell_angle_beta   90.00000000
_cell_angle_gamma   90.00000000
_symmetry_Int_Tables_number   1
_chemical_formula_structural   CsRbNa2Sn2Ge2I3(Br2Cl)3
_chemical_formula_sum   'Cs1 Rb1 Na2 Sn2 Ge2 I3 Br6 Cl3'
_cell_volume   785.60865731
_cell_formula_units_Z   1
loop_
 _symmetry_equiv_pos_site_id
 _symmetry_equiv_pos_as_xyz
  1  'x, y, z'
loop_
 _atom_site_type_symbol
 _atom_site_label
 _atom_site_symmetry_multiplicity
 _atom_site_fract_x
 _atom_site_fract_y
 _atom_site_fract_z
 _atom_site_occupancy
  Cs  Cs0  1  -0.02008390  0.01261958  0.00858253  1
  Na  Na1  1  -0.07352353  0.09422426  0.56073911  1
  Rb  Rb2  1  0.47811885  0.00701703  -0.01496242  1
  Na  Na3  1  0.50158420  0.07524314  0.39791438  1
  Sn  Sn4  1  0.25826726  0.50912718  0.27344362  1
  Sn  Sn5  1  0.26335090  0.54210543  0.73283415  1
  Ge  Ge6  1  0.78371149  0.37952545  0.28195004  1
  Ge  Ge7  1  0.73257420  0.49285917  0.78936912  1
  I  I8  1  0.19325617  0.51873197  0.00550401  1
  Br  Br9  1  0.37471558  0.53497830  0.50297037  1
  Cl  Cl10  1  0.80029898  0.51135243  -0.01511609  1
  Br  Br11  1  0.70624418  0.34929398  0.49007607  1
  Cl  Cl12  1  -0.01751832  0.25809264  0.33182008  1
  I  I13  1  0.00554201  0.58325295  0.66018679  1
  I  I14  1  0.50559283  0.49957912  0.19333539  1
  Cl  Cl15  1  0.52349960  0.50438893  0.83802608  1
  Br  Br16  1  0.28450552  0.00911716  0.26097187  1
  Br  Br17  1  0.26484470  0.03053254  0.75359514  1
  Br  Br18  1  0.72053128  -0.02175610  0.23041092  1
  Br  Br19  1  0.75313588  0.05003139  0.77537505  1
