# generated using pymatgen
data_K2Rb2Ge4(BrCl3)3
_symmetry_space_group_name_H-M   'P 1'
_cell_length_a   10.86382575
_cell_length_b   5.55158465
_cell_length_c   10.85589089
_cell_angle_alpha   90.00000000
_cell_angle_beta   90.00000000
_cell_angle_gamma   90.00000000
_symmetry_Int_Tables_number   1
_chemical_formula_structural   K2Rb2Ge4(BrCl3)3
_chemical_formula_sum   'K2 Rb2 Ge4 Br3 Cl9'
_cell_volume   654.73450241
_cell_formula_units_Z   1
loop_
 _symmetry_equiv_pos_site_id
 _symmetry_equiv_pos_as_xyz
  1  'x, y, z'
loop_
 _atom_site_type_symbol
 _atom_site_label
 _atom_site_symmetry_multiplicity
 _atom_site_fract_x
 _atom_site_fract_y
 _atom_site_fract_z
 _atom_site_occupancy
  K  K0  1  -0.01219468  -0.01666679  0.03107577  1
  Rb  Rb1  1  -0.01431872  -0.00542183  0.50336625  1
  Rb  Rb2  1  0.48507405  0.01077749  0.01361446  1
  K  K3  1  0.50412938  0.01055426  0.54170877  1
  Ge  Ge4  1  0.27153693  0.50769203  0.27021429  1
  Ge  Ge5  1  0.24973702  0.47930208  0.75902944  1
  Ge  Ge6  1  0.75579412  0.51855094  0.26965241  1
  Ge  Ge7  1  0.77456854  0.47819696  0.75986625  1
  Br  Br8  1  0.18718316  0.48439499  -0.00855684  1
  Cl  Cl9  1  0.33087557  0.51063633  0.48833842  1
  Cl  Cl10  1  0.82045370  0.47707864  -0.01878024  1
  Cl  Cl11  1  0.69511126  0.52410968  0.48603031  1
  Cl  Cl12  1  -0.02198346  0.49745540  0.31116340  1
  Cl  Cl13  1  -0.00805434  0.49505099  0.68742483  1
  Cl  Cl14  1  0.48300099  0.50722546  0.19506876  1
  Br  Br15  1  0.49231104  0.51390856  0.80355645  1
  Br  Br16  1  0.24061129  -0.00731117  0.25923238  1
  Cl  Cl17  1  0.25425789  0.04146511  0.73977380  1
  Cl  Cl18  1  0.75620282  -0.04019737  0.24549610  1
  Cl  Cl19  1  0.75865780  0.03789812  0.74260816  1
