# generated using pymatgen
data_KRbNa2SnGe3(I3Cl)3
_symmetry_space_group_name_H-M   'P 1'
_cell_length_a   11.50245376
_cell_length_b   6.15883535
_cell_length_c   11.70838223
_cell_angle_alpha   90.00000000
_cell_angle_beta   90.00000000
_cell_angle_gamma   90.00000000
_symmetry_Int_Tables_number   1
_chemical_formula_structural   KRbNa2SnGe3(I3Cl)3
_chemical_formula_sum   'K1 Rb1 Na2 Sn1 Ge3 I9 Cl3'
_cell_volume   829.44192160
_cell_formula_units_Z   1
loop_
 _symmetry_equiv_pos_site_id
 _symmetry_equiv_pos_as_xyz
  1  'x, y, z'
loop_
 _atom_site_type_symbol
 _atom_site_label
 _atom_site_symmetry_multiplicity
 _atom_site_fract_x
 _atom_site_fract_y
 _atom_site_fract_z
 _atom_site_occupancy
  K  K0  1  -0.02011949  -0.02415926  0.01579128  1
  Na  Na1  1  0.07000892  -0.05106635  0.47225790  1
  Rb  Rb2  1  0.51564783  -0.00910959  0.04998375  1
  Na  Na3  1  0.54356142  -0.07999893  0.56931528  1
  Ge  Ge4  1  0.21125221  0.50047397  0.22567556  1
  Sn  Sn5  1  0.24725772  0.45042026  0.73106540  1
  Ge  Ge6  1  0.75212799  0.63329310  0.27721387  1
  Ge  Ge7  1  0.73472359  0.49248573  0.80660450  1
  I  I8  1  0.32378181  0.48262446  -0.00770253  1
  I  I9  1  0.13841960  0.44700559  0.47740685  1
  Cl  Cl10  1  0.67888484  0.47444029  0.00267937  1
  I  I11  1  0.80897491  0.77917465  0.49802681  1
  Cl  Cl12  1  0.01317592  0.49115145  0.16738522  1
  I  I13  1  -0.01261748  0.47203190  0.83313813  1
  I  I14  1  0.51095679  0.66097414  0.31654137  1
  I  I15  1  0.50782523  0.42710652  0.65404347  1
  I  I16  1  0.21294308  -0.02461147  0.23058525  1
  I  I17  1  0.26273605  -0.05693287  0.68631476  1
  Cl  Cl18  1  0.76953250  -0.01314574  0.19446163  1
  I  I19  1  0.72122584  -0.03709427  0.80594336  1
