# generated using pymatgen
data_CsK3SnGe3I3(BrCl2)3
_symmetry_space_group_name_H-M   'P 1'
_cell_length_a   11.48487479
_cell_length_b   5.72501326
_cell_length_c   11.45241542
_cell_angle_alpha   90.00000000
_cell_angle_beta   90.00000000
_cell_angle_gamma   90.00000000
_symmetry_Int_Tables_number   1
_chemical_formula_structural   CsK3SnGe3I3(BrCl2)3
_chemical_formula_sum   'Cs1 K3 Sn1 Ge3 I3 Br3 Cl6'
_cell_volume   753.00845833
_cell_formula_units_Z   1
loop_
 _symmetry_equiv_pos_site_id
 _symmetry_equiv_pos_as_xyz
  1  'x, y, z'
loop_
 _atom_site_type_symbol
 _atom_site_label
 _atom_site_symmetry_multiplicity
 _atom_site_fract_x
 _atom_site_fract_y
 _atom_site_fract_z
 _atom_site_occupancy
  K  K0  1  0.05792168  -0.01416353  0.00006175  1
  Cs  Cs1  1  0.00053497  0.00362332  0.51376148  1
  K  K2  1  0.49977411  -0.00564073  0.07961804  1
  K  K3  1  0.54047663  0.00505024  0.48892692  1
  Ge  Ge4  1  0.27309118  0.47405051  0.28564476  1
  Sn  Sn5  1  0.26679849  0.49345765  0.73980522  1
  Ge  Ge6  1  0.76036365  0.46039966  0.23726163  1
  Ge  Ge7  1  0.74517562  0.46356027  0.71230332  1
  I  I8  1  0.30012409  0.50691785  0.01713234  1
  Cl  Cl9  1  0.19737523  0.49809502  0.49972136  1
  I  I10  1  0.68409974  0.49047962  0.00163561  1
  Cl  Cl11  1  0.80346131  0.50718022  0.50450648  1
  Br  Br12  1  -0.01804344  0.44270980  0.19521453  1
  I  I13  1  -0.00028042  0.49241111  0.80356293  1
  Cl  Cl14  1  0.48129790  0.51960537  0.31640736  1
  Br  Br15  1  0.51376812  0.50296811  0.65613303  1
  Cl  Cl16  1  0.28169546  0.04996637  0.28146425  1
  Br  Br17  1  0.25997137  -0.00640300  0.74938614  1
  Cl  Cl18  1  0.72830969  0.04156098  0.25997635  1
  Cl  Cl19  1  0.74330145  0.04355840  0.70423089  1
