# generated using pymatgen
data_Rb3Na(SnBr3)4
_symmetry_space_group_name_H-M   'P 1'
_cell_length_a   11.74767033
_cell_length_b   5.87294414
_cell_length_c   11.74767033
_cell_angle_alpha   90.00000000
_cell_angle_beta   90.00000000
_cell_angle_gamma   90.00000000
_symmetry_Int_Tables_number   1
_chemical_formula_structural   Rb3Na(SnBr3)4
_chemical_formula_sum   'Rb3 Na1 Sn4 Br12'
_cell_volume   810.51185452
_cell_formula_units_Z   1
loop_
 _symmetry_equiv_pos_site_id
 _symmetry_equiv_pos_as_xyz
  1  'x, y, z'
loop_
 _atom_site_type_symbol
 _atom_site_label
 _atom_site_symmetry_multiplicity
 _atom_site_fract_x
 _atom_site_fract_y
 _atom_site_fract_z
 _atom_site_occupancy
  Na  Na0  1  -0.00000000  0.00000000  0.00000000  1
  Rb  Rb1  1  0.00000000  0.00000000  0.50000000  1
  Rb  Rb2  1  0.50000000  0.00000000  -0.00000000  1
  Rb  Rb3  1  0.50000000  0.00000000  0.50000000  1
  Sn  Sn4  1  0.24873962  0.50000000  0.24873962  1
  Sn  Sn5  1  0.24873962  0.50000000  0.75126038  1
  Sn  Sn6  1  0.75126038  0.50000000  0.24873962  1
  Sn  Sn7  1  0.75126038  0.50000000  0.75126038  1
  Br  Br8  1  0.24394985  0.50000000  0.00000000  1
  Br  Br9  1  0.24934705  0.50000000  0.50000000  1
  Br  Br10  1  0.75605015  0.50000000  -0.00000000  1
  Br  Br11  1  0.75065295  0.50000000  0.50000000  1
  Br  Br12  1  0.00000000  0.50000000  0.24394985  1
  Br  Br13  1  -0.00000000  0.50000000  0.75605015  1
  Br  Br14  1  0.50000000  0.50000000  0.24934705  1
  Br  Br15  1  0.50000000  0.50000000  0.75065295  1
  Br  Br16  1  0.24335917  0.00000000  0.24335917  1
  Br  Br17  1  0.24335917  0.00000000  0.75664083  1
  Br  Br18  1  0.75664083  0.00000000  0.24335917  1
  Br  Br19  1  0.75664083  0.00000000  0.75664083  1
