# generated using pymatgen
data_K2RbNaSn2Ge2(I3Cl)3
_symmetry_space_group_name_H-M   'P 1'
_cell_length_a   11.70347416
_cell_length_b   6.07863923
_cell_length_c   11.59927483
_cell_angle_alpha   90.00000000
_cell_angle_beta   90.00000000
_cell_angle_gamma   90.00000000
_symmetry_Int_Tables_number   1
_chemical_formula_structural   K2RbNaSn2Ge2(I3Cl)3
_chemical_formula_sum   'K2 Rb1 Na1 Sn2 Ge2 I9 Cl3'
_cell_volume   825.18629773
_cell_formula_units_Z   1
loop_
 _symmetry_equiv_pos_site_id
 _symmetry_equiv_pos_as_xyz
  1  'x, y, z'
loop_
 _atom_site_type_symbol
 _atom_site_label
 _atom_site_symmetry_multiplicity
 _atom_site_fract_x
 _atom_site_fract_y
 _atom_site_fract_z
 _atom_site_occupancy
  K  K0  1  -0.02283461  0.00684586  0.00202951  1
  Rb  Rb1  1  -0.05584741  0.00127291  0.47681611  1
  K  K2  1  0.45769190  -0.01276755  0.00411019  1
  Na  Na3  1  0.41467980  0.00961369  0.50714058  1
  Ge  Ge4  1  0.23204538  0.51331703  0.25605418  1
  Ge  Ge5  1  0.25644698  0.51196167  0.74908736  1
  Sn  Sn6  1  0.76843804  0.48425223  0.22497193  1
  Sn  Sn7  1  0.76102416  0.49383357  0.75838819  1
  I  I8  1  0.18186359  0.50738996  0.00563337  1
  I  I9  1  0.33683492  0.50642908  0.50506421  1
  Cl  Cl10  1  0.84251045  0.50148878  -0.00299052  1
  I  I11  1  0.70389883  0.47741600  0.49474758  1
  Cl  Cl12  1  0.03175699  0.51477520  0.31396486  1
  I  I13  1  0.01682890  0.49800545  0.66753758  1
  I  I14  1  0.51314352  0.48067195  0.18227170  1
  I  I15  1  0.50020105  0.49184680  0.82572851  1
  I  I16  1  0.25854313  -0.00237186  0.26393053  1
  I  I17  1  0.26107596  -0.00389135  0.74744023  1
  Cl  Cl18  1  0.80004542  0.04761086  0.22258880  1
  I  I19  1  0.76288231  -0.00572722  0.77085711  1
