# generated using pymatgen
data_KRb2NaSnGe3I6(BrCl)3
_symmetry_space_group_name_H-M   'P 1'
_cell_length_a   11.48093208
_cell_length_b   5.88357510
_cell_length_c   11.27448797
_cell_angle_alpha   90.00000000
_cell_angle_beta   90.00000000
_cell_angle_gamma   90.00000000
_symmetry_Int_Tables_number   1
_chemical_formula_structural   KRb2NaSnGe3I6(BrCl)3
_chemical_formula_sum   'Rb2 K1 Na1 Sn1 Ge3 I6 Br3 Cl3'
_cell_volume   761.57955478
_cell_formula_units_Z   1
loop_
 _symmetry_equiv_pos_site_id
 _symmetry_equiv_pos_as_xyz
  1  'x, y, z'
loop_
 _atom_site_type_symbol
 _atom_site_label
 _atom_site_symmetry_multiplicity
 _atom_site_fract_x
 _atom_site_fract_y
 _atom_site_fract_z
 _atom_site_occupancy
  Na  Na0  1  0.06260570  0.00000000  0.02219538  1
  Rb  Rb1  1  0.00573455  0.00000000  0.51919822  1
  K  K2  1  0.51850692  -0.00000000  -0.02230557  1
  Rb  Rb3  1  0.52369451  0.00000000  0.49367736  1
  Ge  Ge4  1  0.28921329  0.50000000  0.24330801  1
  Ge  Ge5  1  0.24382056  0.50000000  0.73943249  1
  Ge  Ge6  1  0.74974859  0.49999996  0.21726310  1
  Sn  Sn7  1  0.72951531  0.49999996  0.75548583  1
  Br  Br8  1  0.33369438  0.50000000  0.01796629  1
  Br  Br9  1  0.18396674  0.50000000  0.51815187  1
  Cl  Cl10  1  0.66956173  0.50000000  0.00212170  1
  I  I11  1  0.80000227  0.50000000  0.48853061  1
  I  I12  1  -0.00573452  0.50000000  0.17805491  1
  I  I13  1  -0.00614151  0.49999999  0.82478435  1
  Cl  Cl14  1  0.48848183  0.50000000  0.31408072  1
  Br  Br15  1  0.47969088  0.50000000  0.68020406  1
  I  I16  1  0.24814450  -0.00000000  0.25427576  1
  I  I17  1  0.24359466  -0.00000000  0.78321126  1
  I  I18  1  0.72731006  0.00000003  0.22764369  1
  Cl  Cl19  1  0.71036166  0.00000005  0.74983373  1
