# generated using pymatgen
data_Cs2Rb2Sn2Ge2(Br3Cl)3
_symmetry_space_group_name_H-M   'P 1'
_cell_length_a   11.45404693
_cell_length_b   5.78073621
_cell_length_c   11.43253073
_cell_angle_alpha   90.00000000
_cell_angle_beta   90.00000000
_cell_angle_gamma   90.00000000
_symmetry_Int_Tables_number   1
_chemical_formula_structural   Cs2Rb2Sn2Ge2(Br3Cl)3
_chemical_formula_sum   'Cs2 Rb2 Sn2 Ge2 Br9 Cl3'
_cell_volume   756.98014345
_cell_formula_units_Z   1
loop_
 _symmetry_equiv_pos_site_id
 _symmetry_equiv_pos_as_xyz
  1  'x, y, z'
loop_
 _atom_site_type_symbol
 _atom_site_label
 _atom_site_symmetry_multiplicity
 _atom_site_fract_x
 _atom_site_fract_y
 _atom_site_fract_z
 _atom_site_occupancy
  Rb  Rb0  1  -0.00335108  0.00000030  0.00187082  1
  Cs  Cs1  1  0.00160859  -0.00000065  0.50446949  1
  Cs  Cs2  1  0.50322846  -0.00000191  0.00281365  1
  Rb  Rb3  1  0.50024068  -0.00000190  0.53207807  1
  Sn  Sn4  1  0.24736801  0.49999711  0.25037983  1
  Ge  Ge5  1  0.26955110  0.49988319  0.75089998  1
  Sn  Sn6  1  0.75875459  0.49999982  0.24051240  1
  Ge  Ge7  1  0.76031063  0.49999890  0.75160703  1
  Br  Br8  1  0.24327833  0.50000413  -0.00434829  1
  Br  Br9  1  0.25059571  0.50000490  0.51095774  1
  Cl  Cl10  1  0.75307577  0.50000001  0.00342816  1
  Br  Br11  1  0.74800618  0.49999994  0.51805065  1
  Cl  Cl12  1  0.00198627  0.49999998  0.24503375  1
  Br  Br13  1  -0.01617471  0.50000489  0.75753545  1
  Br  Br14  1  0.50270458  0.49999986  0.25007985  1
  Cl  Cl15  1  0.48081734  0.49999532  0.75045041  1
  Br  Br16  1  0.24226134  0.00000087  0.24992295  1
  Br  Br17  1  0.25695600  0.00013933  0.75030753  1
  Br  Br18  1  0.76515495  0.00000020  0.24224898  1
  Br  Br19  1  0.74232157  -0.00000040  0.75765069  1
