# generated using pymatgen
data_Cs2KRbSn3Ge(ICl)6
_symmetry_space_group_name_H-M   'P 1'
_cell_length_a   11.63225796
_cell_length_b   6.07550737
_cell_length_c   11.58945805
_cell_angle_alpha   90.00000000
_cell_angle_beta   90.00000000
_cell_angle_gamma   90.00000000
_symmetry_Int_Tables_number   1
_chemical_formula_structural   Cs2KRbSn3Ge(ICl)6
_chemical_formula_sum   'Cs2 Rb1 K1 Sn3 Ge1 I6 Cl6'
_cell_volume   819.04865964
_cell_formula_units_Z   1
loop_
 _symmetry_equiv_pos_site_id
 _symmetry_equiv_pos_as_xyz
  1  'x, y, z'
loop_
 _atom_site_type_symbol
 _atom_site_label
 _atom_site_symmetry_multiplicity
 _atom_site_fract_x
 _atom_site_fract_y
 _atom_site_fract_z
 _atom_site_occupancy
  Rb  Rb0  1  -0.00952519  -0.00512895  -0.01841373  1
  K  K1  1  -0.00209649  0.00260379  0.50390783  1
  Cs  Cs2  1  0.49980205  -0.00229554  -0.01965367  1
  Cs  Cs3  1  0.53710441  0.00410555  0.47816260  1
  Sn  Sn4  1  0.27128864  0.50002661  0.24501118  1
  Sn  Sn5  1  0.23870277  0.51430957  0.77676737  1
  Sn  Sn6  1  0.74207132  0.48512680  0.23458295  1
  Ge  Ge7  1  0.76173420  0.49842553  0.77458555  1
  Cl  Cl8  1  0.33048246  0.49806506  0.01445346  1
  I  I9  1  0.17310768  0.50534392  0.51643427  1
  Cl  Cl10  1  0.69428989  0.50145514  -0.02198410  1
  I  I11  1  0.80157804  0.49923812  0.49268115  1
  I  I12  1  0.00547171  0.49612091  0.17522755  1
  Cl  Cl13  1  -0.03112317  0.49394711  0.82541942  1
  Cl  Cl14  1  0.50673845  0.50268814  0.30632560  1
  I  I15  1  0.48896157  0.50747420  0.70290380  1
  I  I16  1  0.25897222  0.00031886  0.26074417  1
  Cl  Cl17  1  0.22251746  -0.04984597  0.79431351  1
  Cl  Cl18  1  0.73480554  0.04650741  0.22618284  1
  I  I19  1  0.76145515  -0.00198580  0.74738418  1
