# generated using pymatgen
data_KRbNa2Sn3GeI3(Br2Cl)3
_symmetry_space_group_name_H-M   'P 1'
_cell_length_a   11.31128481
_cell_length_b   6.01977952
_cell_length_c   11.26427955
_cell_angle_alpha   90.00000000
_cell_angle_beta   90.00000000
_cell_angle_gamma   90.00000000
_symmetry_Int_Tables_number   1
_chemical_formula_structural   KRbNa2Sn3GeI3(Br2Cl)3
_chemical_formula_sum   'Rb1 K1 Na2 Sn3 Ge1 I3 Br6 Cl3'
_cell_volume   767.00102263
_cell_formula_units_Z   1
loop_
 _symmetry_equiv_pos_site_id
 _symmetry_equiv_pos_as_xyz
  1  'x, y, z'
loop_
 _atom_site_type_symbol
 _atom_site_label
 _atom_site_symmetry_multiplicity
 _atom_site_fract_x
 _atom_site_fract_y
 _atom_site_fract_z
 _atom_site_occupancy
  Na  Na0  1  -0.00803376  0.13723215  0.08850903  1
  Na  Na1  1  -0.09315076  -0.06420952  0.50422491  1
  Rb  Rb2  1  0.45030439  0.00299024  -0.01543534  1
  K  K3  1  0.50125891  -0.01564791  0.52771459  1
  Sn  Sn4  1  0.26688750  0.45182935  0.26881070  1
  Sn  Sn5  1  0.25007196  0.47774404  0.74077934  1
  Ge  Ge6  1  0.74423284  0.55395225  0.25040320  1
  Sn  Sn7  1  0.76756591  0.55234295  0.73989637  1
  Br  Br8  1  0.20074121  0.40516021  -0.00225988  1
  Cl  Cl9  1  0.34404404  0.47521051  0.50045901  1
  I  I10  1  0.86054072  0.64136454  0.01186060  1
  Br  Br11  1  0.68260088  0.49772017  0.49409514  1
  I  I12  1  0.00066937  0.41396083  0.34216401  1
  Cl  Cl13  1  -0.01163998  0.60674320  0.66548870  1
  Br  Br14  1  0.52216201  0.51322317  0.16667593  1
  Br  Br15  1  0.49241074  0.50129871  0.80761992  1
  I  I16  1  0.23063658  -0.05793060  0.23965508  1
  Br  Br17  1  0.26963755  -0.00664703  0.72434393  1
  Br  Br18  1  0.74703971  -0.02073003  0.28624364  1
  Cl  Cl19  1  0.74003750  -0.01417245  0.70024241  1
