# generated using pymatgen
data_Cs2KRbSnGe3I6(BrCl)3
_symmetry_space_group_name_H-M   'P 1'
_cell_length_a   11.63362937
_cell_length_b   6.10784258
_cell_length_c   11.30869648
_cell_angle_alpha   90.00000000
_cell_angle_beta   90.00000000
_cell_angle_gamma   90.00000000
_symmetry_Int_Tables_number   1
_chemical_formula_structural   Cs2KRbSnGe3I6(BrCl)3
_chemical_formula_sum   'Cs2 Rb1 K1 Sn1 Ge3 I6 Br3 Cl3'
_cell_volume   803.55499841
_cell_formula_units_Z   1
loop_
 _symmetry_equiv_pos_site_id
 _symmetry_equiv_pos_as_xyz
  1  'x, y, z'
loop_
 _atom_site_type_symbol
 _atom_site_label
 _atom_site_symmetry_multiplicity
 _atom_site_fract_x
 _atom_site_fract_y
 _atom_site_fract_z
 _atom_site_occupancy
  Cs  Cs0  1  -0.00792906  -0.00780575  -0.00247728  1
  Rb  Rb1  1  0.03468081  0.00575313  0.48929672  1
  Cs  Cs2  1  0.49516942  -0.00654168  -0.00055941  1
  K  K3  1  0.50777922  0.00626094  0.51873275  1
  Ge  Ge4  1  0.26829588  0.45836357  0.24460977  1
  Ge  Ge5  1  0.25304886  0.48818407  0.77521651  1
  Sn  Sn6  1  0.74779424  0.49635855  0.23658665  1
  Ge  Ge7  1  0.73760534  0.49989146  0.72602082  1
  Cl  Cl8  1  0.19723462  0.49175778  -0.01658555  1
  I  I9  1  0.31712555  0.50506344  0.48906456  1
  Cl  Cl10  1  0.79480204  0.49650763  0.00860361  1
  Cl  Cl11  1  0.67574838  0.49886266  0.52268959  1
  I  I12  1  0.01205021  0.51013784  0.28978115  1
  I  I13  1  -0.01983076  0.50299678  0.68604448  1
  Br  Br14  1  0.49680053  0.49305561  0.18463311  1
  Br  Br15  1  0.47622902  0.49339111  0.80717485  1
  Br  Br16  1  0.25883535  0.03505609  0.24456521  1
  I  I17  1  0.24619567  -0.00027833  0.74811732  1
  I  I18  1  0.74182239  -0.00261578  0.27908437  1
  I  I19  1  0.73199396  -0.00275851  0.74780404  1
