# generated using pymatgen
data_Rb3NaSnGe3I3(Br2Cl)3
_symmetry_space_group_name_H-M   'P 1'
_cell_length_a   11.10388868
_cell_length_b   6.02721302
_cell_length_c   11.25637769
_cell_angle_alpha   90.00000000
_cell_angle_beta   90.00000000
_cell_angle_gamma   90.00000000
_symmetry_Int_Tables_number   1
_chemical_formula_structural   Rb3NaSnGe3I3(Br2Cl)3
_chemical_formula_sum   'Rb3 Na1 Sn1 Ge3 I3 Br6 Cl3'
_cell_volume   753.33873226
_cell_formula_units_Z   1
loop_
 _symmetry_equiv_pos_site_id
 _symmetry_equiv_pos_as_xyz
  1  'x, y, z'
loop_
 _atom_site_type_symbol
 _atom_site_label
 _atom_site_symmetry_multiplicity
 _atom_site_fract_x
 _atom_site_fract_y
 _atom_site_fract_z
 _atom_site_occupancy
  Na  Na0  1  -0.03861285  -0.12090271  -0.05922886  1
  Rb  Rb1  1  0.00059539  0.00392711  0.50309648  1
  Rb  Rb2  1  0.45352127  -0.00592473  0.00538311  1
  Rb  Rb3  1  0.48443137  0.01204111  0.51748642  1
  Ge  Ge4  1  0.25731593  0.47872603  0.29023788  1
  Ge  Ge5  1  0.24557697  0.48177601  0.76145832  1
  Sn  Sn6  1  0.75705412  0.49662769  0.23470613  1
  Ge  Ge7  1  0.76730669  0.50190008  0.74338257  1
  I  I8  1  0.17884338  0.54084669  0.00364037  1
  Cl  Cl9  1  0.32365182  0.50988814  0.49885881  1
  Cl  Cl10  1  0.81501689  0.49754464  -0.04329967  1
  Br  Br11  1  0.68971618  0.50001765  0.47747930  1
  Br  Br12  1  0.02551977  0.50075815  0.34292746  1
  Cl  Cl13  1  -0.02215639  0.52669741  0.68778072  1
  Br  Br14  1  0.51020913  0.50085208  0.17218104  1
  Br  Br15  1  0.47437557  0.48655340  0.80389157  1
  Br  Br16  1  0.26669931  0.04660998  0.28310972  1
  Br  Br17  1  0.22437133  0.04771344  0.75356838  1
  I  I18  1  0.81049530  -0.00554062  0.18840504  1
  I  I19  1  0.74629025  0.00100283  0.74274366  1
