# generated using pymatgen
data_Cs2Rb2Sn3Ge(BrCl)6
_symmetry_space_group_name_H-M   'P 1'
_cell_length_a   11.24853958
_cell_length_b   5.92698121
_cell_length_c   11.20859477
_cell_angle_alpha   90.00000000
_cell_angle_beta   90.00000000
_cell_angle_gamma   90.00000000
_symmetry_Int_Tables_number   1
_chemical_formula_structural   Cs2Rb2Sn3Ge(BrCl)6
_chemical_formula_sum   'Cs2 Rb2 Sn3 Ge1 Br6 Cl6'
_cell_volume   747.27569889
_cell_formula_units_Z   1
loop_
 _symmetry_equiv_pos_site_id
 _symmetry_equiv_pos_as_xyz
  1  'x, y, z'
loop_
 _atom_site_type_symbol
 _atom_site_label
 _atom_site_symmetry_multiplicity
 _atom_site_fract_x
 _atom_site_fract_y
 _atom_site_fract_z
 _atom_site_occupancy
  Cs  Cs0  1  0.01324516  -0.00139678  0.00874899  1
  Rb  Rb1  1  -0.00677375  0.01329073  0.49327223  1
  Cs  Cs2  1  0.51521098  0.00599767  -0.01219010  1
  Rb  Rb3  1  0.47550563  -0.00789437  0.48696243  1
  Ge  Ge4  1  0.26104260  0.46819160  0.25886826  1
  Sn  Sn5  1  0.24950703  0.50464878  0.75046553  1
  Sn  Sn6  1  0.75751655  0.50002694  0.24898546  1
  Sn  Sn7  1  0.76707483  0.50240548  0.74444286  1
  Br  Br8  1  0.30501021  0.50523908  0.01160911  1
  Br  Br9  1  0.18684480  0.52031303  0.49702020  1
  Cl  Cl10  1  0.70663548  0.50366164  0.00697035  1
  Cl  Cl11  1  0.82786019  0.50647082  0.50628202  1
  Cl  Cl12  1  -0.01311420  0.49751703  0.20123260  1
  Cl  Cl13  1  0.00747940  0.49948131  0.81395062  1
  Cl  Cl14  1  0.47283764  0.49030533  0.31123257  1
  Br  Br15  1  0.50719620  0.49404870  0.68444721  1
  Cl  Cl16  1  0.25262802  0.05908002  0.26297904  1
  Br  Br17  1  0.24795797  0.00706650  0.74332491  1
  Br  Br18  1  0.74621757  -0.00249189  0.26240854  1
  Br  Br19  1  0.76858372  0.00319849  0.74475329  1
