# generated using pymatgen
data_Cs2KNaSn2(GeCl6)2
_symmetry_space_group_name_H-M   'P 1'
_cell_length_a   10.93665760
_cell_length_b   5.63549875
_cell_length_c   10.93871698
_cell_angle_alpha   90.00000000
_cell_angle_beta   90.00000000
_cell_angle_gamma   90.00000000
_symmetry_Int_Tables_number   1
_chemical_formula_structural   Cs2KNaSn2(GeCl6)2
_chemical_formula_sum   'Cs2 K1 Na1 Sn2 Ge2 Cl12'
_cell_volume   674.19163376
_cell_formula_units_Z   1
loop_
 _symmetry_equiv_pos_site_id
 _symmetry_equiv_pos_as_xyz
  1  'x, y, z'
loop_
 _atom_site_type_symbol
 _atom_site_label
 _atom_site_symmetry_multiplicity
 _atom_site_fract_x
 _atom_site_fract_y
 _atom_site_fract_z
 _atom_site_occupancy
  K  K0  1  0.00019971  0.00857625  0.00058290  1
  Cs  Cs1  1  -0.00043740  0.01628414  0.49980356  1
  Na  Na2  1  0.49949176  -0.10426855  -0.00040262  1
  Cs  Cs3  1  0.50011644  -0.00095664  0.49981490  1
  Ge  Ge4  1  0.22405255  0.53268257  0.24923302  1
  Sn  Sn5  1  0.27323115  0.50750541  0.77088921  1
  Sn  Sn6  1  0.72702260  0.50734384  0.22944746  1
  Ge  Ge7  1  0.77609678  0.53153322  0.75102786  1
  Cl  Cl8  1  0.17158437  0.51323148  0.03008946  1
  Cl  Cl9  1  0.29996536  0.50116101  0.52485744  1
  Cl  Cl10  1  0.82854936  0.51298857  -0.02982554  1
  Cl  Cl11  1  0.70027259  0.50044405  0.47538047  1
  Cl  Cl12  1  0.00079064  0.51560635  0.30110899  1
  Cl  Cl13  1  -0.00078100  0.51529134  0.69877447  1
  Cl  Cl14  1  0.48606894  0.52444283  0.17759552  1
  Cl  Cl15  1  0.51392121  0.52221798  0.82298876  1
  Cl  Cl16  1  0.23046256  -0.03504196  0.25356911  1
  Cl  Cl17  1  0.28799147  0.00326688  0.80871788  1
  Cl  Cl18  1  0.71375729  0.00464228  0.19281045  1
  Cl  Cl19  1  0.76942122  -0.03660373  0.74666589  1
