# generated using pymatgen
data_CsK3Sn3Ge(BrCl)6
_symmetry_space_group_name_H-M   'P 1'
_cell_length_a   11.34617054
_cell_length_b   5.65066043
_cell_length_c   11.26232412
_cell_angle_alpha   90.00000000
_cell_angle_beta   90.00000000
_cell_angle_gamma   90.00000000
_symmetry_Int_Tables_number   1
_chemical_formula_structural   CsK3Sn3Ge(BrCl)6
_chemical_formula_sum   'Cs1 K3 Sn3 Ge1 Br6 Cl6'
_cell_volume   722.06540577
_cell_formula_units_Z   1
loop_
 _symmetry_equiv_pos_site_id
 _symmetry_equiv_pos_as_xyz
  1  'x, y, z'
loop_
 _atom_site_type_symbol
 _atom_site_label
 _atom_site_symmetry_multiplicity
 _atom_site_fract_x
 _atom_site_fract_y
 _atom_site_fract_z
 _atom_site_occupancy
  K  K0  1  0.00879973  0.00175756  0.02030478  1
  K  K1  1  -0.06907990  0.00729143  0.50132601  1
  K  K2  1  0.46015488  -0.00033226  -0.00111776  1
  Cs  Cs3  1  0.49882066  -0.00334063  0.47094928  1
  Sn  Sn4  1  0.23660638  0.49939095  0.25268197  1
  Sn  Sn5  1  0.24082307  0.50016967  0.77251246  1
  Ge  Ge6  1  0.73920783  0.48939868  0.24973895  1
  Sn  Sn7  1  0.73433459  0.50330851  0.75083077  1
  Cl  Cl8  1  0.16435885  0.50026373  0.01258058  1
  Br  Br9  1  0.29632311  0.49493811  0.51146572  1
  Br  Br10  1  0.81232956  0.50722205  -0.01181933  1
  Cl  Cl11  1  0.69738690  0.49657236  0.46946207  1
  Br  Br12  1  -0.01245156  0.50849228  0.31247264  1
  Br  Br13  1  -0.02389570  0.50623240  0.68043336  1
  Br  Br14  1  0.50093954  0.49804403  0.19465521  1
  Cl  Cl15  1  0.47419235  0.50122054  0.83864761  1
  Cl  Cl16  1  0.24869250  -0.00034020  0.22590170  1
  Cl  Cl17  1  0.23955449  0.00127808  0.80263374  1
  Br  Br18  1  0.75286075  0.02071586  0.23903160  1
  Cl  Cl19  1  0.72608953  0.00158242  0.71943675  1
