# generated using pymatgen
data_CsRb3Sn2Ge2I3(Br2Cl)3
_symmetry_space_group_name_H-M   'P 1'
_cell_length_a   11.58653542
_cell_length_b   5.88378152
_cell_length_c   11.44171435
_cell_angle_alpha   90.00000000
_cell_angle_beta   90.00000000
_cell_angle_gamma   90.00000000
_symmetry_Int_Tables_number   1
_chemical_formula_structural   CsRb3Sn2Ge2I3(Br2Cl)3
_chemical_formula_sum   'Cs1 Rb3 Sn2 Ge2 I3 Br6 Cl3'
_cell_volume   780.01190722
_cell_formula_units_Z   1
loop_
 _symmetry_equiv_pos_site_id
 _symmetry_equiv_pos_as_xyz
  1  'x, y, z'
loop_
 _atom_site_type_symbol
 _atom_site_label
 _atom_site_symmetry_multiplicity
 _atom_site_fract_x
 _atom_site_fract_y
 _atom_site_fract_z
 _atom_site_occupancy
  Rb  Rb0  1  -0.03475801  -0.00721873  -0.02793751  1
  Rb  Rb1  1  0.01151137  -0.00907878  0.48965909  1
  Cs  Cs2  1  0.45094512  -0.01140614  -0.00594820  1
  Rb  Rb3  1  0.49405866  0.00029140  0.48761787  1
  Ge  Ge4  1  0.22715568  0.46305216  0.26785051  1
  Ge  Ge5  1  0.26088104  0.46469228  0.74512492  1
  Sn  Sn6  1  0.76567182  0.49164870  0.24524699  1
  Sn  Sn7  1  0.72662679  0.49306016  0.75562032  1
  I  I8  1  0.18191917  0.49039313  0.01938843  1
  Br  Br9  1  0.31068069  0.50172444  0.51945506  1
  Cl  Cl10  1  0.81000277  0.49282263  0.01208290  1
  Br  Br11  1  0.68207257  0.49755225  0.51149022  1
  Cl  Cl12  1  0.02211314  0.48513441  0.33054630  1
  I  I13  1  -0.01345153  0.50024284  0.70445218  1
  I  I14  1  0.50433088  0.49403999  0.21240812  1
  Cl  Cl15  1  0.46875980  0.48254665  0.80884416  1
  Br  Br16  1  0.24147073  0.02101422  0.27758792  1
  Br  Br17  1  0.24513041  0.02235040  0.74150732  1
  Br  Br18  1  0.78913869  -0.00772445  0.25276571  1
  Br  Br19  1  0.71616307  -0.00708269  0.77129745  1
