# generated using pymatgen
data_Cs2RbNaSn3Ge(IBr3)3
_symmetry_space_group_name_H-M   'P 1'
_cell_length_a   11.69909376
_cell_length_b   5.99628098
_cell_length_c   11.65464145
_cell_angle_alpha   90.00000000
_cell_angle_beta   90.00000000
_cell_angle_gamma   90.00000000
_symmetry_Int_Tables_number   1
_chemical_formula_structural   Cs2RbNaSn3Ge(IBr3)3
_chemical_formula_sum   'Cs2 Rb1 Na1 Sn3 Ge1 I3 Br9'
_cell_volume   817.58537415
_cell_formula_units_Z   1
loop_
 _symmetry_equiv_pos_site_id
 _symmetry_equiv_pos_as_xyz
  1  'x, y, z'
loop_
 _atom_site_type_symbol
 _atom_site_label
 _atom_site_symmetry_multiplicity
 _atom_site_fract_x
 _atom_site_fract_y
 _atom_site_fract_z
 _atom_site_occupancy
  Cs  Cs0  1  0.00918630  -0.00063522  -0.04763697  1
  Na  Na1  1  -0.00100266  0.00171250  0.40377349  1
  Rb  Rb2  1  0.52476749  -0.00296840  -0.01805351  1
  Cs  Cs3  1  0.49426608  -0.00009549  0.51340464  1
  Sn  Sn4  1  0.24817525  0.49719647  0.25646359  1
  Sn  Sn5  1  0.25361932  0.49555078  0.75435720  1
  Ge  Ge6  1  0.72492234  0.49349110  0.26219472  1
  Sn  Sn7  1  0.75455154  0.49330564  0.74374222  1
  Br  Br8  1  0.20089018  0.49947174  0.00435812  1
  Br  Br9  1  0.30211448  0.49986694  0.50242854  1
  I  I10  1  0.79764208  0.49981252  0.00505018  1
  Br  Br11  1  0.68321497  0.49948770  0.48913115  1
  I  I12  1  -0.01221254  0.50152355  0.32638789  1
  Br  Br13  1  0.00352339  0.48796110  0.70673156  1
  Br  Br14  1  0.50174396  0.48923765  0.19500753  1
  Br  Br15  1  0.50417699  0.49868648  0.80467059  1
  Br  Br16  1  0.22482016  0.00405197  0.26553335  1
  Br  Br17  1  0.27279805  -0.00164473  0.76297465  1
  I  I18  1  0.74670668  0.00001582  0.25845022  1
  Br  Br19  1  0.74136767  -0.00266334  0.74846699  1
