# generated using pymatgen
data_Cs2KNaSn2Ge2I3(Br2Cl)3
_symmetry_space_group_name_H-M   'P 1'
_cell_length_a   11.87990788
_cell_length_b   5.80524737
_cell_length_c   11.79373106
_cell_angle_alpha   90.00000000
_cell_angle_beta   90.00000000
_cell_angle_gamma   90.00000000
_symmetry_Int_Tables_number   1
_chemical_formula_structural   Cs2KNaSn2Ge2I3(Br2Cl)3
_chemical_formula_sum   'Cs2 K1 Na1 Sn2 Ge2 I3 Br6 Cl3'
_cell_volume   813.36414435
_cell_formula_units_Z   1
loop_
 _symmetry_equiv_pos_site_id
 _symmetry_equiv_pos_as_xyz
  1  'x, y, z'
loop_
 _atom_site_type_symbol
 _atom_site_label
 _atom_site_symmetry_multiplicity
 _atom_site_fract_x
 _atom_site_fract_y
 _atom_site_fract_z
 _atom_site_occupancy
  Cs  Cs0  1  0.03273522  0.00427184  0.01551638  1
  K  K1  1  0.07310681  0.03158362  0.50091916  1
  Na  Na2  1  0.60335566  -0.01000837  -0.03583529  1
  Cs  Cs3  1  0.48977861  -0.00543464  0.44119773  1
  Ge  Ge4  1  0.25288173  0.52178364  0.25663577  1
  Ge  Ge5  1  0.25856982  0.48523032  0.78187116  1
  Sn  Sn6  1  0.74533221  0.47070923  0.23533888  1
  Sn  Sn7  1  0.74625134  0.50141563  0.71786211  1
  Cl  Cl8  1  0.19380602  0.49586023  -0.02547643  1
  Br  Br9  1  0.27638484  0.48858696  0.47510819  1
  I  I10  1  0.81291505  0.51469836  -0.02050495  1
  Br  Br11  1  0.68124259  0.49148617  0.47923756  1
  Br  Br12  1  -0.02678126  0.40526916  0.28510239  1
  I  I13  1  0.00177684  0.53450491  0.67381680  1
  Br  Br14  1  0.46461324  0.52331712  0.21316411  1
  I  I15  1  0.49393781  0.49027485  0.85611702  1
  Cl  Cl16  1  0.22438053  -0.06381480  0.26329685  1
  Br  Br17  1  0.24825576  0.04408224  0.75005108  1
  Cl  Cl18  1  0.69990063  0.02223640  0.19177819  1
  Br  Br19  1  0.71014918  -0.00552156  0.73007609  1
