# generated using pymatgen
data_K3NaSn2Ge2(ICl)6
_symmetry_space_group_name_H-M   'P 1'
_cell_length_a   10.97055277
_cell_length_b   5.91168290
_cell_length_c   12.09191272
_cell_angle_alpha   90.00000000
_cell_angle_beta   90.00000000
_cell_angle_gamma   90.00000000
_symmetry_Int_Tables_number   1
_chemical_formula_structural   K3NaSn2Ge2(ICl)6
_chemical_formula_sum   'K3 Na1 Sn2 Ge2 I6 Cl6'
_cell_volume   784.21409722
_cell_formula_units_Z   1
loop_
 _symmetry_equiv_pos_site_id
 _symmetry_equiv_pos_as_xyz
  1  'x, y, z'
loop_
 _atom_site_type_symbol
 _atom_site_label
 _atom_site_symmetry_multiplicity
 _atom_site_fract_x
 _atom_site_fract_y
 _atom_site_fract_z
 _atom_site_occupancy
  Na  Na0  1  0.05012086  -0.02932956  0.06926999  1
  K  K1  1  -0.01204122  -0.02987922  0.48673527  1
  K  K2  1  0.53518460  0.05648153  -0.05573625  1
  K  K3  1  0.48768664  0.01071866  0.55309065  1
  Ge  Ge4  1  0.22906325  0.48280156  0.27861894  1
  Sn  Sn5  1  0.24698071  0.49489923  0.77673915  1
  Sn  Sn6  1  0.72453777  0.48910584  0.21180977  1
  Ge  Ge7  1  0.75731712  0.46705390  0.71565679  1
  I  I8  1  0.16439767  0.47416464  0.03844491  1
  I  I9  1  0.29939155  0.50712909  0.52565613  1
  I  I10  1  0.79907332  0.53682814  -0.04236321  1
  I  I11  1  0.67751212  0.52190791  0.47221162  1
  Cl  Cl12  1  0.01869863  0.48859925  0.33433596  1
  Cl  Cl13  1  -0.03056281  0.43582747  0.66239797  1
  Cl  Cl14  1  0.49916046  0.40192717  0.15837188  1
  Cl  Cl15  1  0.48058476  0.54568271  0.81534465  1
  I  I16  1  0.25147134  -0.01995267  0.27691381  1
  Cl  Cl17  1  0.28012721  0.04792932  0.78011127  1
  I  I18  1  0.81915422  0.00449867  0.22250998  1
  Cl  Cl19  1  0.71896441  0.06133365  0.72004033  1
