# generated using pymatgen
data_KRb3Sn2Ge2I3(BrCl2)3
_symmetry_space_group_name_H-M   'P 1'
_cell_length_a   11.15400722
_cell_length_b   5.66495689
_cell_length_c   11.68193390
_cell_angle_alpha   90.00000000
_cell_angle_beta   90.00000000
_cell_angle_gamma   90.00000000
_symmetry_Int_Tables_number   1
_chemical_formula_structural   KRb3Sn2Ge2I3(BrCl2)3
_chemical_formula_sum   'Rb3 K1 Sn2 Ge2 I3 Br3 Cl6'
_cell_volume   738.14600750
_cell_formula_units_Z   1
loop_
 _symmetry_equiv_pos_site_id
 _symmetry_equiv_pos_as_xyz
  1  'x, y, z'
loop_
 _atom_site_type_symbol
 _atom_site_label
 _atom_site_symmetry_multiplicity
 _atom_site_fract_x
 _atom_site_fract_y
 _atom_site_fract_z
 _atom_site_occupancy
  Rb  Rb0  1  0.03237013  0.00169276  0.03491329  1
  Rb  Rb1  1  0.00915897  0.00493856  0.56051901  1
  K  K2  1  0.53211110  0.00045325  -0.02532358  1
  Rb  Rb3  1  0.49647428  0.00094031  0.49751121  1
  Sn  Sn4  1  0.25419635  0.50016343  0.26726706  1
  Ge  Ge5  1  0.27839441  0.48834727  0.74107734  1
  Sn  Sn6  1  0.74927033  0.50216222  0.22471348  1
  Ge  Ge7  1  0.74175095  0.48765605  0.75776562  1
  I  I8  1  0.31849091  0.50704780  0.00098336  1
  Br  Br9  1  0.19611965  0.50263980  0.51518688  1
  Cl  Cl10  1  0.68138085  0.49775242  -0.03679974  1
  I  I11  1  0.80009171  0.50933452  0.48263623  1
  Cl  Cl12  1  -0.01332166  0.50120998  0.18063099  1
  I  I13  1  -0.00695635  0.50494695  0.80876050  1
  Cl  Cl14  1  0.48795678  0.49989383  0.32212192  1
  Cl  Cl15  1  0.48961025  0.50465487  0.68054121  1
  Cl  Cl16  1  0.24179966  0.00358307  0.27261893  1
  Br  Br17  1  0.27172494  0.02010821  0.74843160  1
  Cl  Cl18  1  0.73974944  -0.00243376  0.19009109  1
  Br  Br19  1  0.72906516  0.02102528  0.73962966  1
