# generated using pymatgen
data_K2Rb2Sn3GeI3(BrCl2)3
_symmetry_space_group_name_H-M   'P 1'
_cell_length_a   11.25402041
_cell_length_b   5.94715261
_cell_length_c   11.65997941
_cell_angle_alpha   90.00000000
_cell_angle_beta   90.00000000
_cell_angle_gamma   90.00000000
_symmetry_Int_Tables_number   1
_chemical_formula_structural   K2Rb2Sn3GeI3(BrCl2)3
_chemical_formula_sum   'K2 Rb2 Sn3 Ge1 I3 Br3 Cl6'
_cell_volume   780.39515659
_cell_formula_units_Z   1
loop_
 _symmetry_equiv_pos_site_id
 _symmetry_equiv_pos_as_xyz
  1  'x, y, z'
loop_
 _atom_site_type_symbol
 _atom_site_label
 _atom_site_symmetry_multiplicity
 _atom_site_fract_x
 _atom_site_fract_y
 _atom_site_fract_z
 _atom_site_occupancy
  K  K0  1  -0.02047185  0.02388638  0.06734153  1
  Rb  Rb1  1  -0.02303116  0.00876416  0.49154466  1
  K  K2  1  0.42961055  0.00456050  0.01704920  1
  Rb  Rb3  1  0.54123454  -0.01679033  0.50408529  1
  Sn  Sn4  1  0.25588508  0.50741581  0.26333801  1
  Sn  Sn5  1  0.24315931  0.50911475  0.73452159  1
  Ge  Ge6  1  0.75998058  0.53434359  0.24929443  1
  Sn  Sn7  1  0.77692378  0.51708653  0.72497723  1
  I  I8  1  0.16839454  0.51444636  0.00663845  1
  Br  Br9  1  0.34956956  0.49331042  0.50342003  1
  Br  Br10  1  0.80394997  0.53367920  0.03103703  1
  Cl  Cl11  1  0.69600303  0.47771749  0.51485925  1
  Cl  Cl12  1  -0.03188787  0.48350034  0.30152379  1
  Cl  Cl13  1  0.00204687  0.51044351  0.62916641  1
  Cl  Cl14  1  0.47449240  0.51196850  0.18473119  1
  I  I15  1  0.50402399  0.50744427  0.82853338  1
  Br  Br16  1  0.23840778  0.00737850  0.26379917  1
  I  I17  1  0.18993823  0.01108536  0.76931890  1
  Cl  Cl18  1  0.76273817  -0.05683397  0.27190974  1
  Cl  Cl19  1  0.76762401  -0.03651937  0.70353578  1
