# generated using pymatgen
data_CsRbNa2SnGe3I6(BrCl)3
_symmetry_space_group_name_H-M   'P 1'
_cell_length_a   11.22995180
_cell_length_b   6.00351721
_cell_length_c   11.58711445
_cell_angle_alpha   90.00000000
_cell_angle_beta   90.00000000
_cell_angle_gamma   90.00000000
_symmetry_Int_Tables_number   1
_chemical_formula_structural   CsRbNa2SnGe3I6(BrCl)3
_chemical_formula_sum   'Cs1 Rb1 Na2 Sn1 Ge3 I6 Br3 Cl3'
_cell_volume   781.19408960
_cell_formula_units_Z   1
loop_
 _symmetry_equiv_pos_site_id
 _symmetry_equiv_pos_as_xyz
  1  'x, y, z'
loop_
 _atom_site_type_symbol
 _atom_site_label
 _atom_site_symmetry_multiplicity
 _atom_site_fract_x
 _atom_site_fract_y
 _atom_site_fract_z
 _atom_site_occupancy
  Rb  Rb0  1  0.04494072  0.01654117  -0.00175846  1
  Na  Na1  1  -0.11044725  0.09907712  0.52967187  1
  Cs  Cs2  1  0.51126104  -0.01137201  -0.00265938  1
  Na  Na3  1  0.47777338  0.05308869  0.52751725  1
  Ge  Ge4  1  0.28240020  0.51913664  0.24159540  1
  Ge  Ge5  1  0.27548620  0.50689530  0.76956273  1
  Sn  Sn6  1  0.74382435  0.46582843  0.26622713  1
  Ge  Ge7  1  0.75057008  0.54130875  0.74581216  1
  Cl  Cl8  1  0.20466017  0.50353825  -0.03012720  1
  I  I9  1  0.34155188  0.53985053  0.47951593  1
  I  I10  1  0.81911625  0.52835787  0.00552737  1
  Br  Br11  1  0.68322624  0.44579607  0.52542153  1
  I  I12  1  0.00314449  0.35973724  0.31344025  1
  I  I13  1  -0.00880558  0.54723651  0.67447602  1
  Cl  Cl14  1  0.48795398  0.48465144  0.16912083  1
  Cl  Cl15  1  0.48829349  0.49960578  0.81740781  1
  Br  Br16  1  0.26224213  -0.05671456  0.21811227  1
  I  I17  1  0.26848868  0.02072649  0.73703157  1
  I  I18  1  0.67992639  -0.03297960  0.31554048  1
  Br  Br19  1  0.72446547  -0.02765769  0.73225456  1
