# generated using pymatgen
data_CsNa3SnGe3(IBr)6
_symmetry_space_group_name_H-M   'P 1'
_cell_length_a   11.44043738
_cell_length_b   6.11812820
_cell_length_c   11.53433389
_cell_angle_alpha   90.00000000
_cell_angle_beta   90.00000000
_cell_angle_gamma   90.00000000
_symmetry_Int_Tables_number   1
_chemical_formula_structural   CsNa3SnGe3(IBr)6
_chemical_formula_sum   'Cs1 Na3 Sn1 Ge3 I6 Br6'
_cell_volume   807.33488808
_cell_formula_units_Z   1
loop_
 _symmetry_equiv_pos_site_id
 _symmetry_equiv_pos_as_xyz
  1  'x, y, z'
loop_
 _atom_site_type_symbol
 _atom_site_label
 _atom_site_symmetry_multiplicity
 _atom_site_fract_x
 _atom_site_fract_y
 _atom_site_fract_z
 _atom_site_occupancy
  Na  Na0  1  0.08509537  0.07720855  -0.00682362  1
  Cs  Cs1  1  0.03220881  -0.00081248  0.51198643  1
  Na  Na2  1  0.56575766  0.05936609  -0.01949552  1
  Na  Na3  1  0.55748019  -0.03510261  0.46682304  1
  Ge  Ge4  1  0.25180220  0.44161607  0.22761767  1
  Ge  Ge5  1  0.25201694  0.50872451  0.73995839  1
  Ge  Ge6  1  0.75115703  0.45481832  0.25613325  1
  Sn  Sn7  1  0.75338108  0.48234936  0.75574265  1
  Br  Br8  1  0.18419072  0.53081101  0.01783651  1
  Br  Br9  1  0.29254804  0.52377241  0.52143179  1
  I  I10  1  0.83130041  0.34231552  0.00472239  1
  I  I11  1  0.64046439  0.46501346  0.49111432  1
  Br  Br12  1  -0.03981044  0.49344115  0.32913882  1
  Br  Br13  1  0.01927270  0.50777899  0.70767435  1
  Br  Br14  1  0.46710671  0.35183144  0.19057054  1
  I  I15  1  0.50924704  0.53547929  0.86078933  1
  Br  Br16  1  0.19169528  0.03486466  0.22684948  1
  I  I17  1  0.26124906  0.02809928  0.77517659  1
  I  I18  1  0.70585910  -0.08939220  0.22928715  1
  I  I19  1  0.72279297  -0.01014861  0.70776771  1
