# generated using pymatgen
data_Rb2Na2Sn3GeI3(BrCl2)3
_symmetry_space_group_name_H-M   'P 1'
_cell_length_a   11.19660315
_cell_length_b   5.94162273
_cell_length_c   11.29574983
_cell_angle_alpha   90.00000000
_cell_angle_beta   90.00000000
_cell_angle_gamma   90.00000000
_symmetry_Int_Tables_number   1
_chemical_formula_structural   Rb2Na2Sn3GeI3(BrCl2)3
_chemical_formula_sum   'Rb2 Na2 Sn3 Ge1 I3 Br3 Cl6'
_cell_volume   751.46096071
_cell_formula_units_Z   1
loop_
 _symmetry_equiv_pos_site_id
 _symmetry_equiv_pos_as_xyz
  1  'x, y, z'
loop_
 _atom_site_type_symbol
 _atom_site_label
 _atom_site_symmetry_multiplicity
 _atom_site_fract_x
 _atom_site_fract_y
 _atom_site_fract_z
 _atom_site_occupancy
  Rb  Rb0  1  0.04334569  -0.01419508  0.00940525  1
  Na  Na1  1  -0.00432206  -0.15344894  0.59490182  1
  Na  Na2  1  0.57033421  -0.12361135  0.01392002  1
  Rb  Rb3  1  0.43875979  0.01283160  0.50612014  1
  Sn  Sn4  1  0.23875115  0.52729379  0.26026783  1
  Sn  Sn5  1  0.25066592  0.54550469  0.76146151  1
  Sn  Sn6  1  0.78082275  0.44849901  0.23382380  1
  Ge  Ge7  1  0.72019594  0.44872334  0.75916110  1
  Br  Br8  1  0.32063835  0.64639693  0.01658637  1
  Cl  Cl9  1  0.20702963  0.60517554  0.51891592  1
  Cl  Cl10  1  0.65193332  0.43274740  -0.03069077  1
  I  I11  1  0.86001792  0.39375225  0.49000509  1
  Cl  Cl12  1  0.00956235  0.48191076  0.14172569  1
  Cl  Cl13  1  0.01838375  0.55950207  0.80128468  1
  I  I14  1  0.51008849  0.52032558  0.31949631  1
  Cl  Cl15  1  0.52179145  0.46634451  0.67642346  1
  Cl  Cl16  1  0.24010250  0.08082198  0.26736338  1
  Br  Br17  1  0.22524365  0.05053675  0.74412640  1
  Br  Br18  1  0.76727275  -0.03928292  0.18775160  1
  I  I19  1  0.74464400  -0.04795576  0.76058814  1
