# generated using pymatgen
data_KRbNa2SnGe3(ICl)6
_symmetry_space_group_name_H-M   'P 1'
_cell_length_a   11.32009280
_cell_length_b   5.72519613
_cell_length_c   11.60316056
_cell_angle_alpha   90.00000000
_cell_angle_beta   90.00000000
_cell_angle_gamma   90.00000000
_symmetry_Int_Tables_number   1
_chemical_formula_structural   KRbNa2SnGe3(ICl)6
_chemical_formula_sum   'K1 Rb1 Na2 Sn1 Ge3 I6 Cl6'
_cell_volume   751.99795214
_cell_formula_units_Z   1
loop_
 _symmetry_equiv_pos_site_id
 _symmetry_equiv_pos_as_xyz
  1  'x, y, z'
loop_
 _atom_site_type_symbol
 _atom_site_label
 _atom_site_symmetry_multiplicity
 _atom_site_fract_x
 _atom_site_fract_y
 _atom_site_fract_z
 _atom_site_occupancy
  K  K0  1  0.04975941  -0.00205278  -0.03094301  1
  Na  Na1  1  0.03474467  0.00209146  0.52651355  1
  Na  Na2  1  0.56451148  0.00434180  0.05039792  1
  Rb  Rb3  1  0.51030787  -0.00040462  0.48070436  1
  Ge  Ge4  1  0.24702269  0.50016618  0.19158189  1
  Sn  Sn5  1  0.23297534  0.50099819  0.72979325  1
  Ge  Ge6  1  0.70614060  0.52713154  0.24616620  1
  Ge  Ge7  1  0.77102312  0.50105101  0.76457068  1
  Cl  Cl8  1  0.27846885  0.50216132  -0.02175553  1
  I  I9  1  0.18708750  0.50198704  0.46684029  1
  Cl  Cl10  1  0.62808633  0.50474908  0.04887852  1
  I  I11  1  0.83023934  0.49698083  0.52736090  1
  I  I12  1  -0.00031980  0.49284713  0.17127002  1
  Cl  Cl13  1  -0.01492478  0.50085210  0.82469072  1
  Cl  Cl14  1  0.51234577  0.49966661  0.33226106  1
  I  I15  1  0.49895022  0.50012070  0.69266515  1
  I  I16  1  0.31009433  0.00193743  0.19763082  1
  Cl  Cl17  1  0.19191987  0.00116698  0.71669711  1
  Cl  Cl18  1  0.70976828  -0.04314321  0.24935880  1
  I  I19  1  0.74814215  0.00254788  0.82524827  1
