# generated using pymatgen
data_K2RbNaSn2Ge2(I3Br)3
_symmetry_space_group_name_H-M   'P 1'
_cell_length_a   11.60687228
_cell_length_b   6.03697899
_cell_length_c   11.92658477
_cell_angle_alpha   90.00000000
_cell_angle_beta   90.00000000
_cell_angle_gamma   90.00000000
_symmetry_Int_Tables_number   1
_chemical_formula_structural   K2RbNaSn2Ge2(I3Br)3
_chemical_formula_sum   'K2 Rb1 Na1 Sn2 Ge2 I9 Br3'
_cell_volume   835.70109163
_cell_formula_units_Z   1
loop_
 _symmetry_equiv_pos_site_id
 _symmetry_equiv_pos_as_xyz
  1  'x, y, z'
loop_
 _atom_site_type_symbol
 _atom_site_label
 _atom_site_symmetry_multiplicity
 _atom_site_fract_x
 _atom_site_fract_y
 _atom_site_fract_z
 _atom_site_occupancy
  K  K0  1  0.00805468  -0.00000000  -0.00726870  1
  Na  Na1  1  0.01478880  0.00000000  0.58249207  1
  K  K2  1  0.49620010  -0.00000000  0.05023976  1
  Rb  Rb3  1  0.56994654  -0.00000000  0.49802839  1
  Sn  Sn4  1  0.22511939  0.50000000  0.25709363  1
  Ge  Ge5  1  0.26220264  0.50000000  0.74927541  1
  Sn  Sn6  1  0.75910990  0.50000000  0.24219047  1
  Ge  Ge7  1  0.77539787  0.50000000  0.75879751  1
  I  I8  1  0.31181423  0.50000000  -0.00883966  1
  I  I9  1  0.15364755  0.50000000  0.50976994  1
  I  I10  1  0.67456768  0.50000000  -0.00670691  1
  I  I11  1  0.80562646  0.50000000  0.50884320  1
  Br  Br12  1  -0.00875523  0.50000000  0.14983535  1
  Br  Br13  1  -0.00838911  0.50000000  0.81618546  1
  I  I14  1  0.49173596  0.50000000  0.31327986  1
  I  I15  1  0.49476024  0.50000000  0.68163637  1
  I  I16  1  0.23145470  -0.00000000  0.22620345  1
  I  I17  1  0.22889049  -0.00000000  0.75133214  1
  Br  Br18  1  0.74555833  -0.00000000  0.23909492  1
  I  I19  1  0.77965178  -0.00000000  0.74859349  1
