# generated using pymatgen
data_K4Sn3GeI3(Br2Cl)3
_symmetry_space_group_name_H-M   'P 1'
_cell_length_a   11.20570417
_cell_length_b   6.03863904
_cell_length_c   11.38365576
_cell_angle_alpha   90.00000000
_cell_angle_beta   90.00000000
_cell_angle_gamma   90.00000000
_symmetry_Int_Tables_number   1
_chemical_formula_structural   K4Sn3GeI3(Br2Cl)3
_chemical_formula_sum   'K4 Sn3 Ge1 I3 Br6 Cl3'
_cell_volume   770.30014104
_cell_formula_units_Z   1
loop_
 _symmetry_equiv_pos_site_id
 _symmetry_equiv_pos_as_xyz
  1  'x, y, z'
loop_
 _atom_site_type_symbol
 _atom_site_label
 _atom_site_symmetry_multiplicity
 _atom_site_fract_x
 _atom_site_fract_y
 _atom_site_fract_z
 _atom_site_occupancy
  K  K0  1  -0.02389487  -0.00023149  0.02359143  1
  K  K1  1  -0.00235356  -0.00117291  0.52107223  1
  K  K2  1  0.49460938  -0.00034188  -0.00230536  1
  K  K3  1  0.48213107  -0.00151339  0.50318176  1
  Sn  Sn4  1  0.25505562  0.50355117  0.26025333  1
  Sn  Sn5  1  0.24242710  0.49881259  0.72413293  1
  Sn  Sn6  1  0.75160559  0.49997314  0.24496088  1
  Ge  Ge7  1  0.74138457  0.50006095  0.75194758  1
  I  I8  1  0.17007501  0.50015004  -0.00931840  1
  Cl  Cl9  1  0.34335703  0.49882926  0.49063659  1
  Cl  Cl10  1  0.82288146  0.49966658  0.02353661  1
  Br  Br11  1  0.68569701  0.49994335  0.53149895  1
  Br  Br12  1  0.00222286  0.50019153  0.33193375  1
  Cl  Cl13  1  0.01404814  0.49842424  0.66416293  1
  Br  Br14  1  0.50037992  0.50013252  0.15959313  1
  Br  Br15  1  0.51958333  0.49969597  0.82125807  1
  Br  Br16  1  0.25673796  -0.00324862  0.26593108  1
  Br  Br17  1  0.25586677  -0.00430703  0.71757615  1
  I  I18  1  0.73492423  -0.00006226  0.27168095  1
  I  I19  1  0.76678509  -0.00153594  0.77117840  1
