# generated using pymatgen
data_Cs2KNaSnGe3I3(BrCl2)3
_symmetry_space_group_name_H-M   'P 1'
_cell_length_a   11.15393423
_cell_length_b   5.81842257
_cell_length_c   11.67196565
_cell_angle_alpha   90.00000000
_cell_angle_beta   90.00000000
_cell_angle_gamma   90.00000000
_symmetry_Int_Tables_number   1
_chemical_formula_structural   Cs2KNaSnGe3I3(BrCl2)3
_chemical_formula_sum   'Cs2 K1 Na1 Sn1 Ge3 I3 Br3 Cl6'
_cell_volume   757.49076045
_cell_formula_units_Z   1
loop_
 _symmetry_equiv_pos_site_id
 _symmetry_equiv_pos_as_xyz
  1  'x, y, z'
loop_
 _atom_site_type_symbol
 _atom_site_label
 _atom_site_symmetry_multiplicity
 _atom_site_fract_x
 _atom_site_fract_y
 _atom_site_fract_z
 _atom_site_occupancy
  K  K0  1  0.01456901  -0.03193402  0.05243391  1
  Na  Na1  1  -0.02152298  0.07575526  0.60403564  1
  Cs  Cs2  1  0.52897236  0.02617684  0.04008734  1
  Cs  Cs3  1  0.48017984  0.00420944  0.47902697  1
  Ge  Ge4  1  0.23445332  0.44647494  0.24738688  1
  Ge  Ge5  1  0.26317518  0.51222238  0.72912055  1
  Ge  Ge6  1  0.74814308  0.48246753  0.24659667  1
  Sn  Sn7  1  0.73354901  0.51576225  0.76177411  1
  I  I8  1  0.31910876  0.52896100  -0.03479271  1
  Br  Br9  1  0.19345389  0.40660727  0.46548174  1
  Cl  Cl10  1  0.71796962  0.52626871  0.03497903  1
  I  I11  1  0.83220809  0.54872359  0.51989721  1
  Cl  Cl12  1  0.02739037  0.47060404  0.18706786  1
  I  I13  1  -0.00484165  0.44633714  0.83278807  1
  Cl  Cl14  1  0.53271632  0.49630132  0.28550890  1
  Cl  Cl15  1  0.47791287  0.51287853  0.66278632  1
  Cl  Cl16  1  0.25662014  0.03557303  0.21581289  1
  Br  Br17  1  0.22572449  -0.04779959  0.70569625  1
  Cl  Cl18  1  0.76121617  0.06694862  0.24728372  1
  Br  Br19  1  0.72158939  0.02169552  0.74788127  1
