#Energy: -21876.795240631553, Gap: 1.458156795528611
# generated using pymatgen
data_Cs2Rb2SnGe3I3(BrCl2)3
_symmetry_space_group_name_H-M   'P 1'
_cell_length_a   11.40000000
_cell_length_b   5.70000000
_cell_length_c   11.40000000
_cell_angle_alpha   90.00000000
_cell_angle_beta   90.00000000
_cell_angle_gamma   90.00000000
_symmetry_Int_Tables_number   1
_chemical_formula_structural   Cs2Rb2SnGe3I3(BrCl2)3
_chemical_formula_sum   'Cs2 Rb2 Sn1 Ge3 I3 Br3 Cl6'
_cell_volume   740.77200000
_cell_formula_units_Z   1
loop_
 _symmetry_equiv_pos_site_id
 _symmetry_equiv_pos_as_xyz
  1  'x, y, z'
loop_
 _atom_site_type_symbol
 _atom_site_label
 _atom_site_symmetry_multiplicity
 _atom_site_fract_x
 _atom_site_fract_y
 _atom_site_fract_z
 _atom_site_occupancy
  Rb  Rb0  1  0.00000000  0.00000000  0.00000000  1
  Cs  Cs1  1  0.00000000  0.00000000  0.50000000  1
  Cs  Cs2  1  0.50000000  0.00000000  0.00000000  1
  Rb  Rb3  1  0.50000000  0.00000000  0.50000000  1
  Ge  Ge4  1  0.25000000  0.50000000  0.25000000  1
  Sn  Sn5  1  0.25000000  0.50000000  0.75000000  1
  Ge  Ge6  1  0.75000000  0.50000000  0.25000000  1
  Ge  Ge7  1  0.75000000  0.50000000  0.75000000  1
  Br  Br8  1  0.25000000  0.50000000  0.00000000  1
  I  I9  1  0.25000000  0.50000000  0.50000000  1
  Cl  Cl10  1  0.75000000  0.50000000  0.00000000  1
  Br  Br11  1  0.75000000  0.50000000  0.50000000  1
  Cl  Cl12  1  0.00000000  0.50000000  0.25000000  1
  Br  Br13  1  0.00000000  0.50000000  0.75000000  1
  I  I14  1  0.50000000  0.50000000  0.25000000  1
  Cl  Cl15  1  0.50000000  0.50000000  0.75000000  1
  Cl  Cl16  1  0.25000000  0.00000000  0.25000000  1
  Cl  Cl17  1  0.25000000  0.00000000  0.75000000  1
  Cl  Cl18  1  0.75000000  0.00000000  0.25000000  1
  I  I19  1  0.75000000  0.00000000  0.75000000  1
