#Energy: -21961.6743922683, Gap: 1.2958477620842084
# generated using pymatgen
data_CsK2RbSnGe3I3(Br2Cl)3
_symmetry_space_group_name_H-M   'P 1'
_cell_length_a   11.40000000
_cell_length_b   5.70000000
_cell_length_c   11.40000000
_cell_angle_alpha   90.00000000
_cell_angle_beta   90.00000000
_cell_angle_gamma   90.00000000
_symmetry_Int_Tables_number   1
_chemical_formula_structural   CsK2RbSnGe3I3(Br2Cl)3
_chemical_formula_sum   'Cs1 Rb1 K2 Sn1 Ge3 I3 Br6 Cl3'
_cell_volume   740.77200000
_cell_formula_units_Z   1
loop_
 _symmetry_equiv_pos_site_id
 _symmetry_equiv_pos_as_xyz
  1  'x, y, z'
loop_
 _atom_site_type_symbol
 _atom_site_label
 _atom_site_symmetry_multiplicity
 _atom_site_fract_x
 _atom_site_fract_y
 _atom_site_fract_z
 _atom_site_occupancy
  Rb  Rb0  1  0.00000000  0.00000000  0.00000000  1
  Cs  Cs1  1  0.00000000  0.00000000  0.50000000  1
  K  K2  1  0.50000000  0.00000000  0.00000000  1
  K  K3  1  0.50000000  0.00000000  0.50000000  1
  Ge  Ge4  1  0.25000000  0.50000000  0.25000000  1
  Ge  Ge5  1  0.25000000  0.50000000  0.75000000  1
  Sn  Sn6  1  0.75000000  0.50000000  0.25000000  1
  Ge  Ge7  1  0.75000000  0.50000000  0.75000000  1
  Br  Br8  1  0.25000000  0.50000000  0.00000000  1
  Br  Br9  1  0.25000000  0.50000000  0.50000000  1
  I  I10  1  0.75000000  0.50000000  0.00000000  1
  I  I11  1  0.75000000  0.50000000  0.50000000  1
  Br  Br12  1  0.00000000  0.50000000  0.25000000  1
  I  I13  1  0.00000000  0.50000000  0.75000000  1
  Br  Br14  1  0.50000000  0.50000000  0.25000000  1
  Cl  Cl15  1  0.50000000  0.50000000  0.75000000  1
  Br  Br16  1  0.25000000  0.00000000  0.25000000  1
  Cl  Cl17  1  0.25000000  0.00000000  0.75000000  1
  Br  Br18  1  0.75000000  0.00000000  0.25000000  1
  Cl  Cl19  1  0.75000000  0.00000000  0.75000000  1
